
---------- Begin Simulation Statistics ----------
simSeconds                                   0.001073                       # Number of seconds simulated (Second)
simTicks                                   1073473119                       # Number of ticks simulated (Tick)
finalTick                                  6359544090                       # Number of ticks from beginning of simulation (restored from checkpoints and never reset) (Tick)
simFreq                                  1000000000000                       # The number of ticks per simulated second ((Tick/Second))
hostSeconds                                     29.91                       # Real time elapsed on the host (Second)
hostTickRate                                 35889898                       # The number of ticks simulated per host second (ticks/s) ((Tick/Second))
hostMemory                                    4485240                       # Number of bytes of host memory used (Byte)
simInsts                                      7286008                       # Number of instructions simulated (Count)
simOps                                        7289224                       # Number of ops (including micro ops) simulated (Count)
hostInstRate                                   243595                       # Simulator instruction rate (inst/s) ((Count/Second))
hostOpRate                                     243702                       # Simulator op (including micro ops) rate (op/s) ((Count/Second))
board.cache_hierarchy.clusters0.dptw_cache.blockedCycles::no_mshrs            0                       # number of cycles access was blocked (Cycle)
board.cache_hierarchy.clusters0.dptw_cache.blockedCycles::no_wbuffers            0                       # number of cycles access was blocked (Cycle)
board.cache_hierarchy.clusters0.dptw_cache.blockedCycles::no_targets            0                       # number of cycles access was blocked (Cycle)
board.cache_hierarchy.clusters0.dptw_cache.blockedCauses::no_mshrs            0                       # number of times access was blocked (Count)
board.cache_hierarchy.clusters0.dptw_cache.blockedCauses::no_wbuffers            0                       # number of times access was blocked (Count)
board.cache_hierarchy.clusters0.dptw_cache.blockedCauses::no_targets            0                       # number of times access was blocked (Count)
board.cache_hierarchy.clusters0.dptw_cache.avgBlocked::no_mshrs          nan                       # average number of cycles each access was blocked ((Cycle/Count))
board.cache_hierarchy.clusters0.dptw_cache.avgBlocked::no_wbuffers          nan                       # average number of cycles each access was blocked ((Cycle/Count))
board.cache_hierarchy.clusters0.dptw_cache.avgBlocked::no_targets          nan                       # average number of cycles each access was blocked ((Cycle/Count))
board.cache_hierarchy.clusters0.dptw_cache.replacements            0                       # number of replacements (Count)
board.cache_hierarchy.clusters0.dptw_cache.power_state.pwrStateResidencyTicks::UNDEFINED   6359544090                       # Cumulative time (in ticks) in various power states (Tick)
board.cache_hierarchy.clusters0.dptw_cache.tags.tagsInUse            0                       # Average ticks per tags in use ((Tick/Count))
board.cache_hierarchy.clusters0.dptw_cache.tags.totalRefs            0                       # Total number of references to valid blocks. (Count)
board.cache_hierarchy.clusters0.dptw_cache.tags.sampledRefs            0                       # Sample count of references to valid blocks. (Count)
board.cache_hierarchy.clusters0.dptw_cache.tags.avgRefs          nan                       # Average number of references to valid blocks. ((Count/Count))
board.cache_hierarchy.clusters0.dptw_cache.tags.warmupTick            0                       # The tick when the warmup percentage was hit. (Tick)
board.cache_hierarchy.clusters0.dptw_cache.tags.tagAccesses            0                       # Number of tag accesses (Count)
board.cache_hierarchy.clusters0.dptw_cache.tags.dataAccesses            0                       # Number of data accesses (Count)
board.cache_hierarchy.clusters0.dptw_cache.tags.power_state.pwrStateResidencyTicks::UNDEFINED   6359544090                       # Cumulative time (in ticks) in various power states (Tick)
board.cache_hierarchy.clusters0.iptw_cache.blockedCycles::no_mshrs            0                       # number of cycles access was blocked (Cycle)
board.cache_hierarchy.clusters0.iptw_cache.blockedCycles::no_wbuffers            0                       # number of cycles access was blocked (Cycle)
board.cache_hierarchy.clusters0.iptw_cache.blockedCycles::no_targets            0                       # number of cycles access was blocked (Cycle)
board.cache_hierarchy.clusters0.iptw_cache.blockedCauses::no_mshrs            0                       # number of times access was blocked (Count)
board.cache_hierarchy.clusters0.iptw_cache.blockedCauses::no_wbuffers            0                       # number of times access was blocked (Count)
board.cache_hierarchy.clusters0.iptw_cache.blockedCauses::no_targets            0                       # number of times access was blocked (Count)
board.cache_hierarchy.clusters0.iptw_cache.avgBlocked::no_mshrs          nan                       # average number of cycles each access was blocked ((Cycle/Count))
board.cache_hierarchy.clusters0.iptw_cache.avgBlocked::no_wbuffers          nan                       # average number of cycles each access was blocked ((Cycle/Count))
board.cache_hierarchy.clusters0.iptw_cache.avgBlocked::no_targets          nan                       # average number of cycles each access was blocked ((Cycle/Count))
board.cache_hierarchy.clusters0.iptw_cache.replacements            0                       # number of replacements (Count)
board.cache_hierarchy.clusters0.iptw_cache.power_state.pwrStateResidencyTicks::UNDEFINED   6359544090                       # Cumulative time (in ticks) in various power states (Tick)
board.cache_hierarchy.clusters0.iptw_cache.tags.tagsInUse            0                       # Average ticks per tags in use ((Tick/Count))
board.cache_hierarchy.clusters0.iptw_cache.tags.totalRefs            0                       # Total number of references to valid blocks. (Count)
board.cache_hierarchy.clusters0.iptw_cache.tags.sampledRefs            0                       # Sample count of references to valid blocks. (Count)
board.cache_hierarchy.clusters0.iptw_cache.tags.avgRefs          nan                       # Average number of references to valid blocks. ((Count/Count))
board.cache_hierarchy.clusters0.iptw_cache.tags.warmupTick            0                       # The tick when the warmup percentage was hit. (Tick)
board.cache_hierarchy.clusters0.iptw_cache.tags.tagAccesses            0                       # Number of tag accesses (Count)
board.cache_hierarchy.clusters0.iptw_cache.tags.dataAccesses            0                       # Number of data accesses (Count)
board.cache_hierarchy.clusters0.iptw_cache.tags.power_state.pwrStateResidencyTicks::UNDEFINED   6359544090                       # Cumulative time (in ticks) in various power states (Tick)
board.cache_hierarchy.clusters0.l1d_cache.demandHits::processor.cores0.core.data       819868                       # number of demand (read+write) hits (Count)
board.cache_hierarchy.clusters0.l1d_cache.demandHits::total       819868                       # number of demand (read+write) hits (Count)
board.cache_hierarchy.clusters0.l1d_cache.overallHits::processor.cores0.core.data       819868                       # number of overall hits (Count)
board.cache_hierarchy.clusters0.l1d_cache.overallHits::total       819868                       # number of overall hits (Count)
board.cache_hierarchy.clusters0.l1d_cache.demandMisses::processor.cores0.core.data        55940                       # number of demand (read+write) misses (Count)
board.cache_hierarchy.clusters0.l1d_cache.demandMisses::total        55940                       # number of demand (read+write) misses (Count)
board.cache_hierarchy.clusters0.l1d_cache.overallMisses::processor.cores0.core.data        55940                       # number of overall misses (Count)
board.cache_hierarchy.clusters0.l1d_cache.overallMisses::total        55940                       # number of overall misses (Count)
board.cache_hierarchy.clusters0.l1d_cache.demandMissLatency::processor.cores0.core.data    726083523                       # number of demand (read+write) miss ticks (Tick)
board.cache_hierarchy.clusters0.l1d_cache.demandMissLatency::total    726083523                       # number of demand (read+write) miss ticks (Tick)
board.cache_hierarchy.clusters0.l1d_cache.overallMissLatency::processor.cores0.core.data    726083523                       # number of overall miss ticks (Tick)
board.cache_hierarchy.clusters0.l1d_cache.overallMissLatency::total    726083523                       # number of overall miss ticks (Tick)
board.cache_hierarchy.clusters0.l1d_cache.demandAccesses::processor.cores0.core.data       875808                       # number of demand (read+write) accesses (Count)
board.cache_hierarchy.clusters0.l1d_cache.demandAccesses::total       875808                       # number of demand (read+write) accesses (Count)
board.cache_hierarchy.clusters0.l1d_cache.overallAccesses::processor.cores0.core.data       875808                       # number of overall (read+write) accesses (Count)
board.cache_hierarchy.clusters0.l1d_cache.overallAccesses::total       875808                       # number of overall (read+write) accesses (Count)
board.cache_hierarchy.clusters0.l1d_cache.demandMissRate::processor.cores0.core.data     0.063872                       # miss rate for demand accesses (Ratio)
board.cache_hierarchy.clusters0.l1d_cache.demandMissRate::total     0.063872                       # miss rate for demand accesses (Ratio)
board.cache_hierarchy.clusters0.l1d_cache.overallMissRate::processor.cores0.core.data     0.063872                       # miss rate for overall accesses (Ratio)
board.cache_hierarchy.clusters0.l1d_cache.overallMissRate::total     0.063872                       # miss rate for overall accesses (Ratio)
board.cache_hierarchy.clusters0.l1d_cache.demandAvgMissLatency::processor.cores0.core.data 12979.684001                       # average overall miss latency in ticks ((Tick/Count))
board.cache_hierarchy.clusters0.l1d_cache.demandAvgMissLatency::total 12979.684001                       # average overall miss latency in ticks ((Tick/Count))
board.cache_hierarchy.clusters0.l1d_cache.overallAvgMissLatency::processor.cores0.core.data 12979.684001                       # average overall miss latency ((Tick/Count))
board.cache_hierarchy.clusters0.l1d_cache.overallAvgMissLatency::total 12979.684001                       # average overall miss latency ((Tick/Count))
board.cache_hierarchy.clusters0.l1d_cache.blockedCycles::no_mshrs            0                       # number of cycles access was blocked (Cycle)
board.cache_hierarchy.clusters0.l1d_cache.blockedCycles::no_wbuffers            0                       # number of cycles access was blocked (Cycle)
board.cache_hierarchy.clusters0.l1d_cache.blockedCycles::no_targets            0                       # number of cycles access was blocked (Cycle)
board.cache_hierarchy.clusters0.l1d_cache.blockedCauses::no_mshrs            0                       # number of times access was blocked (Count)
board.cache_hierarchy.clusters0.l1d_cache.blockedCauses::no_wbuffers            0                       # number of times access was blocked (Count)
board.cache_hierarchy.clusters0.l1d_cache.blockedCauses::no_targets            0                       # number of times access was blocked (Count)
board.cache_hierarchy.clusters0.l1d_cache.avgBlocked::no_mshrs          nan                       # average number of cycles each access was blocked ((Cycle/Count))
board.cache_hierarchy.clusters0.l1d_cache.avgBlocked::no_wbuffers          nan                       # average number of cycles each access was blocked ((Cycle/Count))
board.cache_hierarchy.clusters0.l1d_cache.avgBlocked::no_targets          nan                       # average number of cycles each access was blocked ((Cycle/Count))
board.cache_hierarchy.clusters0.l1d_cache.writebacks::writebacks         1847                       # number of writebacks (Count)
board.cache_hierarchy.clusters0.l1d_cache.writebacks::total         1847                       # number of writebacks (Count)
board.cache_hierarchy.clusters0.l1d_cache.demandMshrHits::processor.cores0.core.data        11458                       # number of demand (read+write) MSHR hits (Count)
board.cache_hierarchy.clusters0.l1d_cache.demandMshrHits::total        11458                       # number of demand (read+write) MSHR hits (Count)
board.cache_hierarchy.clusters0.l1d_cache.overallMshrHits::processor.cores0.core.data        11458                       # number of overall MSHR hits (Count)
board.cache_hierarchy.clusters0.l1d_cache.overallMshrHits::total        11458                       # number of overall MSHR hits (Count)
board.cache_hierarchy.clusters0.l1d_cache.demandMshrMisses::processor.cores0.core.data        44482                       # number of demand (read+write) MSHR misses (Count)
board.cache_hierarchy.clusters0.l1d_cache.demandMshrMisses::total        44482                       # number of demand (read+write) MSHR misses (Count)
board.cache_hierarchy.clusters0.l1d_cache.overallMshrMisses::cache_hierarchy.clusters0.l1d_cache.prefetcher         1013                       # number of overall MSHR misses (Count)
board.cache_hierarchy.clusters0.l1d_cache.overallMshrMisses::processor.cores0.core.data        44482                       # number of overall MSHR misses (Count)
board.cache_hierarchy.clusters0.l1d_cache.overallMshrMisses::total        45495                       # number of overall MSHR misses (Count)
board.cache_hierarchy.clusters0.l1d_cache.demandMshrMissLatency::processor.cores0.core.data    653115564                       # number of demand (read+write) MSHR miss ticks (Tick)
board.cache_hierarchy.clusters0.l1d_cache.demandMshrMissLatency::total    653115564                       # number of demand (read+write) MSHR miss ticks (Tick)
board.cache_hierarchy.clusters0.l1d_cache.overallMshrMissLatency::cache_hierarchy.clusters0.l1d_cache.prefetcher      7102267                       # number of overall MSHR miss ticks (Tick)
board.cache_hierarchy.clusters0.l1d_cache.overallMshrMissLatency::processor.cores0.core.data    653115564                       # number of overall MSHR miss ticks (Tick)
board.cache_hierarchy.clusters0.l1d_cache.overallMshrMissLatency::total    660217831                       # number of overall MSHR miss ticks (Tick)
board.cache_hierarchy.clusters0.l1d_cache.demandMshrMissRate::processor.cores0.core.data     0.050790                       # mshr miss ratio for demand accesses (Ratio)
board.cache_hierarchy.clusters0.l1d_cache.demandMshrMissRate::total     0.050790                       # mshr miss ratio for demand accesses (Ratio)
board.cache_hierarchy.clusters0.l1d_cache.overallMshrMissRate::cache_hierarchy.clusters0.l1d_cache.prefetcher          inf                       # mshr miss ratio for overall accesses (Ratio)
board.cache_hierarchy.clusters0.l1d_cache.overallMshrMissRate::processor.cores0.core.data     0.050790                       # mshr miss ratio for overall accesses (Ratio)
board.cache_hierarchy.clusters0.l1d_cache.overallMshrMissRate::total     0.051946                       # mshr miss ratio for overall accesses (Ratio)
board.cache_hierarchy.clusters0.l1d_cache.demandAvgMshrMissLatency::processor.cores0.core.data 14682.693314                       # average overall mshr miss latency ((Tick/Count))
board.cache_hierarchy.clusters0.l1d_cache.demandAvgMshrMissLatency::total 14682.693314                       # average overall mshr miss latency ((Tick/Count))
board.cache_hierarchy.clusters0.l1d_cache.overallAvgMshrMissLatency::cache_hierarchy.clusters0.l1d_cache.prefetcher  7011.122409                       # average overall mshr miss latency ((Tick/Count))
board.cache_hierarchy.clusters0.l1d_cache.overallAvgMshrMissLatency::processor.cores0.core.data 14682.693314                       # average overall mshr miss latency ((Tick/Count))
board.cache_hierarchy.clusters0.l1d_cache.overallAvgMshrMissLatency::total 14511.876712                       # average overall mshr miss latency ((Tick/Count))
board.cache_hierarchy.clusters0.l1d_cache.replacements         1847                       # number of replacements (Count)
board.cache_hierarchy.clusters0.l1d_cache.HardPFReq.mshrMisses::cache_hierarchy.clusters0.l1d_cache.prefetcher         1013                       # number of HardPFReq MSHR misses (Count)
board.cache_hierarchy.clusters0.l1d_cache.HardPFReq.mshrMisses::total         1013                       # number of HardPFReq MSHR misses (Count)
board.cache_hierarchy.clusters0.l1d_cache.HardPFReq.mshrMissLatency::cache_hierarchy.clusters0.l1d_cache.prefetcher      7102267                       # number of HardPFReq MSHR miss ticks (Tick)
board.cache_hierarchy.clusters0.l1d_cache.HardPFReq.mshrMissLatency::total      7102267                       # number of HardPFReq MSHR miss ticks (Tick)
board.cache_hierarchy.clusters0.l1d_cache.HardPFReq.mshrMissRate::cache_hierarchy.clusters0.l1d_cache.prefetcher          inf                       # mshr miss rate for HardPFReq accesses (Ratio)
board.cache_hierarchy.clusters0.l1d_cache.HardPFReq.mshrMissRate::total          inf                       # mshr miss rate for HardPFReq accesses (Ratio)
board.cache_hierarchy.clusters0.l1d_cache.HardPFReq.avgMshrMissLatency::cache_hierarchy.clusters0.l1d_cache.prefetcher  7011.122409                       # average HardPFReq mshr miss latency ((Tick/Count))
board.cache_hierarchy.clusters0.l1d_cache.HardPFReq.avgMshrMissLatency::total  7011.122409                       # average HardPFReq mshr miss latency ((Tick/Count))
board.cache_hierarchy.clusters0.l1d_cache.LoadLockedReq.hits::processor.cores0.core.data          100                       # number of LoadLockedReq hits (Count)
board.cache_hierarchy.clusters0.l1d_cache.LoadLockedReq.hits::total          100                       # number of LoadLockedReq hits (Count)
board.cache_hierarchy.clusters0.l1d_cache.LoadLockedReq.accesses::processor.cores0.core.data          100                       # number of LoadLockedReq accesses(hits+misses) (Count)
board.cache_hierarchy.clusters0.l1d_cache.LoadLockedReq.accesses::total          100                       # number of LoadLockedReq accesses(hits+misses) (Count)
board.cache_hierarchy.clusters0.l1d_cache.ReadReq.hits::processor.cores0.core.data       680657                       # number of ReadReq hits (Count)
board.cache_hierarchy.clusters0.l1d_cache.ReadReq.hits::total       680657                       # number of ReadReq hits (Count)
board.cache_hierarchy.clusters0.l1d_cache.ReadReq.misses::processor.cores0.core.data        21884                       # number of ReadReq misses (Count)
board.cache_hierarchy.clusters0.l1d_cache.ReadReq.misses::total        21884                       # number of ReadReq misses (Count)
board.cache_hierarchy.clusters0.l1d_cache.ReadReq.missLatency::processor.cores0.core.data    300869163                       # number of ReadReq miss ticks (Tick)
board.cache_hierarchy.clusters0.l1d_cache.ReadReq.missLatency::total    300869163                       # number of ReadReq miss ticks (Tick)
board.cache_hierarchy.clusters0.l1d_cache.ReadReq.accesses::processor.cores0.core.data       702541                       # number of ReadReq accesses(hits+misses) (Count)
board.cache_hierarchy.clusters0.l1d_cache.ReadReq.accesses::total       702541                       # number of ReadReq accesses(hits+misses) (Count)
board.cache_hierarchy.clusters0.l1d_cache.ReadReq.missRate::processor.cores0.core.data     0.031150                       # miss rate for ReadReq accesses (Ratio)
board.cache_hierarchy.clusters0.l1d_cache.ReadReq.missRate::total     0.031150                       # miss rate for ReadReq accesses (Ratio)
board.cache_hierarchy.clusters0.l1d_cache.ReadReq.avgMissLatency::processor.cores0.core.data 13748.362411                       # average ReadReq miss latency ((Tick/Count))
board.cache_hierarchy.clusters0.l1d_cache.ReadReq.avgMissLatency::total 13748.362411                       # average ReadReq miss latency ((Tick/Count))
board.cache_hierarchy.clusters0.l1d_cache.ReadReq.mshrHits::processor.cores0.core.data            1                       # number of ReadReq MSHR hits (Count)
board.cache_hierarchy.clusters0.l1d_cache.ReadReq.mshrHits::total            1                       # number of ReadReq MSHR hits (Count)
board.cache_hierarchy.clusters0.l1d_cache.ReadReq.mshrMisses::processor.cores0.core.data        21883                       # number of ReadReq MSHR misses (Count)
board.cache_hierarchy.clusters0.l1d_cache.ReadReq.mshrMisses::total        21883                       # number of ReadReq MSHR misses (Count)
board.cache_hierarchy.clusters0.l1d_cache.ReadReq.mshrMissLatency::processor.cores0.core.data    293577129                       # number of ReadReq MSHR miss ticks (Tick)
board.cache_hierarchy.clusters0.l1d_cache.ReadReq.mshrMissLatency::total    293577129                       # number of ReadReq MSHR miss ticks (Tick)
board.cache_hierarchy.clusters0.l1d_cache.ReadReq.mshrMissRate::processor.cores0.core.data     0.031148                       # mshr miss rate for ReadReq accesses (Ratio)
board.cache_hierarchy.clusters0.l1d_cache.ReadReq.mshrMissRate::total     0.031148                       # mshr miss rate for ReadReq accesses (Ratio)
board.cache_hierarchy.clusters0.l1d_cache.ReadReq.avgMshrMissLatency::processor.cores0.core.data 13415.762418                       # average ReadReq mshr miss latency ((Tick/Count))
board.cache_hierarchy.clusters0.l1d_cache.ReadReq.avgMshrMissLatency::total 13415.762418                       # average ReadReq mshr miss latency ((Tick/Count))
board.cache_hierarchy.clusters0.l1d_cache.StoreCondReq.misses::processor.cores0.core.data          100                       # number of StoreCondReq misses (Count)
board.cache_hierarchy.clusters0.l1d_cache.StoreCondReq.misses::total          100                       # number of StoreCondReq misses (Count)
board.cache_hierarchy.clusters0.l1d_cache.StoreCondReq.missLatency::processor.cores0.core.data      1598400                       # number of StoreCondReq miss ticks (Tick)
board.cache_hierarchy.clusters0.l1d_cache.StoreCondReq.missLatency::total      1598400                       # number of StoreCondReq miss ticks (Tick)
board.cache_hierarchy.clusters0.l1d_cache.StoreCondReq.accesses::processor.cores0.core.data          100                       # number of StoreCondReq accesses(hits+misses) (Count)
board.cache_hierarchy.clusters0.l1d_cache.StoreCondReq.accesses::total          100                       # number of StoreCondReq accesses(hits+misses) (Count)
board.cache_hierarchy.clusters0.l1d_cache.StoreCondReq.missRate::processor.cores0.core.data            1                       # miss rate for StoreCondReq accesses (Ratio)
board.cache_hierarchy.clusters0.l1d_cache.StoreCondReq.missRate::total            1                       # miss rate for StoreCondReq accesses (Ratio)
board.cache_hierarchy.clusters0.l1d_cache.StoreCondReq.avgMissLatency::processor.cores0.core.data        15984                       # average StoreCondReq miss latency ((Tick/Count))
board.cache_hierarchy.clusters0.l1d_cache.StoreCondReq.avgMissLatency::total        15984                       # average StoreCondReq miss latency ((Tick/Count))
board.cache_hierarchy.clusters0.l1d_cache.StoreCondReq.mshrMisses::processor.cores0.core.data          100                       # number of StoreCondReq MSHR misses (Count)
board.cache_hierarchy.clusters0.l1d_cache.StoreCondReq.mshrMisses::total          100                       # number of StoreCondReq MSHR misses (Count)
board.cache_hierarchy.clusters0.l1d_cache.StoreCondReq.mshrMissLatency::processor.cores0.core.data      1565100                       # number of StoreCondReq MSHR miss ticks (Tick)
board.cache_hierarchy.clusters0.l1d_cache.StoreCondReq.mshrMissLatency::total      1565100                       # number of StoreCondReq MSHR miss ticks (Tick)
board.cache_hierarchy.clusters0.l1d_cache.StoreCondReq.mshrMissRate::processor.cores0.core.data            1                       # mshr miss rate for StoreCondReq accesses (Ratio)
board.cache_hierarchy.clusters0.l1d_cache.StoreCondReq.mshrMissRate::total            1                       # mshr miss rate for StoreCondReq accesses (Ratio)
board.cache_hierarchy.clusters0.l1d_cache.StoreCondReq.avgMshrMissLatency::processor.cores0.core.data        15651                       # average StoreCondReq mshr miss latency ((Tick/Count))
board.cache_hierarchy.clusters0.l1d_cache.StoreCondReq.avgMshrMissLatency::total        15651                       # average StoreCondReq mshr miss latency ((Tick/Count))
board.cache_hierarchy.clusters0.l1d_cache.SwapReq.hits::processor.cores0.core.data           50                       # number of SwapReq hits (Count)
board.cache_hierarchy.clusters0.l1d_cache.SwapReq.hits::total           50                       # number of SwapReq hits (Count)
board.cache_hierarchy.clusters0.l1d_cache.SwapReq.misses::processor.cores0.core.data          352                       # number of SwapReq misses (Count)
board.cache_hierarchy.clusters0.l1d_cache.SwapReq.misses::total          352                       # number of SwapReq misses (Count)
board.cache_hierarchy.clusters0.l1d_cache.SwapReq.missLatency::processor.cores0.core.data      3299031                       # number of SwapReq miss ticks (Tick)
board.cache_hierarchy.clusters0.l1d_cache.SwapReq.missLatency::total      3299031                       # number of SwapReq miss ticks (Tick)
board.cache_hierarchy.clusters0.l1d_cache.SwapReq.accesses::processor.cores0.core.data          402                       # number of SwapReq accesses(hits+misses) (Count)
board.cache_hierarchy.clusters0.l1d_cache.SwapReq.accesses::total          402                       # number of SwapReq accesses(hits+misses) (Count)
board.cache_hierarchy.clusters0.l1d_cache.SwapReq.missRate::processor.cores0.core.data     0.875622                       # miss rate for SwapReq accesses (Ratio)
board.cache_hierarchy.clusters0.l1d_cache.SwapReq.missRate::total     0.875622                       # miss rate for SwapReq accesses (Ratio)
board.cache_hierarchy.clusters0.l1d_cache.SwapReq.avgMissLatency::processor.cores0.core.data  9372.247159                       # average SwapReq miss latency ((Tick/Count))
board.cache_hierarchy.clusters0.l1d_cache.SwapReq.avgMissLatency::total  9372.247159                       # average SwapReq miss latency ((Tick/Count))
board.cache_hierarchy.clusters0.l1d_cache.SwapReq.mshrMisses::processor.cores0.core.data          352                       # number of SwapReq MSHR misses (Count)
board.cache_hierarchy.clusters0.l1d_cache.SwapReq.mshrMisses::total          352                       # number of SwapReq MSHR misses (Count)
board.cache_hierarchy.clusters0.l1d_cache.SwapReq.mshrMissLatency::processor.cores0.core.data      3181815                       # number of SwapReq MSHR miss ticks (Tick)
board.cache_hierarchy.clusters0.l1d_cache.SwapReq.mshrMissLatency::total      3181815                       # number of SwapReq MSHR miss ticks (Tick)
board.cache_hierarchy.clusters0.l1d_cache.SwapReq.mshrMissRate::processor.cores0.core.data     0.875622                       # mshr miss rate for SwapReq accesses (Ratio)
board.cache_hierarchy.clusters0.l1d_cache.SwapReq.mshrMissRate::total     0.875622                       # mshr miss rate for SwapReq accesses (Ratio)
board.cache_hierarchy.clusters0.l1d_cache.SwapReq.avgMshrMissLatency::processor.cores0.core.data  9039.247159                       # average SwapReq mshr miss latency ((Tick/Count))
board.cache_hierarchy.clusters0.l1d_cache.SwapReq.avgMshrMissLatency::total  9039.247159                       # average SwapReq mshr miss latency ((Tick/Count))
board.cache_hierarchy.clusters0.l1d_cache.WriteReq.hits::processor.cores0.core.data       139211                       # number of WriteReq hits (Count)
board.cache_hierarchy.clusters0.l1d_cache.WriteReq.hits::total       139211                       # number of WriteReq hits (Count)
board.cache_hierarchy.clusters0.l1d_cache.WriteReq.misses::processor.cores0.core.data        34056                       # number of WriteReq misses (Count)
board.cache_hierarchy.clusters0.l1d_cache.WriteReq.misses::total        34056                       # number of WriteReq misses (Count)
board.cache_hierarchy.clusters0.l1d_cache.WriteReq.missLatency::processor.cores0.core.data    425214360                       # number of WriteReq miss ticks (Tick)
board.cache_hierarchy.clusters0.l1d_cache.WriteReq.missLatency::total    425214360                       # number of WriteReq miss ticks (Tick)
board.cache_hierarchy.clusters0.l1d_cache.WriteReq.accesses::processor.cores0.core.data       173267                       # number of WriteReq accesses(hits+misses) (Count)
board.cache_hierarchy.clusters0.l1d_cache.WriteReq.accesses::total       173267                       # number of WriteReq accesses(hits+misses) (Count)
board.cache_hierarchy.clusters0.l1d_cache.WriteReq.missRate::processor.cores0.core.data     0.196552                       # miss rate for WriteReq accesses (Ratio)
board.cache_hierarchy.clusters0.l1d_cache.WriteReq.missRate::total     0.196552                       # miss rate for WriteReq accesses (Ratio)
board.cache_hierarchy.clusters0.l1d_cache.WriteReq.avgMissLatency::processor.cores0.core.data 12485.739958                       # average WriteReq miss latency ((Tick/Count))
board.cache_hierarchy.clusters0.l1d_cache.WriteReq.avgMissLatency::total 12485.739958                       # average WriteReq miss latency ((Tick/Count))
board.cache_hierarchy.clusters0.l1d_cache.WriteReq.mshrHits::processor.cores0.core.data        11457                       # number of WriteReq MSHR hits (Count)
board.cache_hierarchy.clusters0.l1d_cache.WriteReq.mshrHits::total        11457                       # number of WriteReq MSHR hits (Count)
board.cache_hierarchy.clusters0.l1d_cache.WriteReq.mshrMisses::processor.cores0.core.data        22599                       # number of WriteReq MSHR misses (Count)
board.cache_hierarchy.clusters0.l1d_cache.WriteReq.mshrMisses::total        22599                       # number of WriteReq MSHR misses (Count)
board.cache_hierarchy.clusters0.l1d_cache.WriteReq.mshrMissLatency::processor.cores0.core.data    359538435                       # number of WriteReq MSHR miss ticks (Tick)
board.cache_hierarchy.clusters0.l1d_cache.WriteReq.mshrMissLatency::total    359538435                       # number of WriteReq MSHR miss ticks (Tick)
board.cache_hierarchy.clusters0.l1d_cache.WriteReq.mshrMissRate::processor.cores0.core.data     0.130429                       # mshr miss rate for WriteReq accesses (Ratio)
board.cache_hierarchy.clusters0.l1d_cache.WriteReq.mshrMissRate::total     0.130429                       # mshr miss rate for WriteReq accesses (Ratio)
board.cache_hierarchy.clusters0.l1d_cache.WriteReq.avgMshrMissLatency::processor.cores0.core.data 15909.484269                       # average WriteReq mshr miss latency ((Tick/Count))
board.cache_hierarchy.clusters0.l1d_cache.WriteReq.avgMshrMissLatency::total 15909.484269                       # average WriteReq mshr miss latency ((Tick/Count))
board.cache_hierarchy.clusters0.l1d_cache.power_state.pwrStateResidencyTicks::UNDEFINED   6359544090                       # Cumulative time (in ticks) in various power states (Tick)
board.cache_hierarchy.clusters0.l1d_cache.prefetcher.demandMshrMisses        44482                       # demands not covered by prefetchs (Count)
board.cache_hierarchy.clusters0.l1d_cache.prefetcher.pfIssued         3032                       # number of hwpf issued (Count)
board.cache_hierarchy.clusters0.l1d_cache.prefetcher.pfUnused          173                       # number of HardPF blocks evicted w/o reference (Count)
board.cache_hierarchy.clusters0.l1d_cache.prefetcher.pfUseful          830                       # number of useful prefetch (Count)
board.cache_hierarchy.clusters0.l1d_cache.prefetcher.pfUsefulButMiss           59                       # number of hit on prefetch but cache block is not in an usable state (Count)
board.cache_hierarchy.clusters0.l1d_cache.prefetcher.accuracy     0.273747                       # accuracy of the prefetcher (Count)
board.cache_hierarchy.clusters0.l1d_cache.prefetcher.coverage     0.018317                       # coverage brought by this prefetcher (Count)
board.cache_hierarchy.clusters0.l1d_cache.prefetcher.pfHitInCache         2014                       # number of prefetches hitting in cache (Count)
board.cache_hierarchy.clusters0.l1d_cache.prefetcher.pfHitInMSHR            5                       # number of prefetches hitting in a MSHR (Count)
board.cache_hierarchy.clusters0.l1d_cache.prefetcher.pfHitInWB            0                       # number of prefetches hit in the Write Buffer (Count)
board.cache_hierarchy.clusters0.l1d_cache.prefetcher.pfLate         2019                       # number of late prefetches (hitting in cache, MSHR or WB) (Count)
board.cache_hierarchy.clusters0.l1d_cache.prefetcher.pfIdentified         3032                       # number of prefetch candidates identified (Count)
board.cache_hierarchy.clusters0.l1d_cache.prefetcher.pfBufferHit            0                       # number of redundant prefetches already in prefetch queue (Count)
board.cache_hierarchy.clusters0.l1d_cache.prefetcher.pfInCache            0                       # number of redundant prefetches already in cache/mshr dropped (Count)
board.cache_hierarchy.clusters0.l1d_cache.prefetcher.pfRemovedDemand            0                       # number of prefetches dropped due to a demand for the same address (Count)
board.cache_hierarchy.clusters0.l1d_cache.prefetcher.pfRemovedFull            0                       # number of prefetches dropped due to prefetch queue size (Count)
board.cache_hierarchy.clusters0.l1d_cache.prefetcher.pfSpanPage         1072                       # number of prefetches that crossed the page (Count)
board.cache_hierarchy.clusters0.l1d_cache.prefetcher.pfUsefulSpanPage          293                       # number of prefetches that is useful and crossed the page (Count)
board.cache_hierarchy.clusters0.l1d_cache.prefetcher.power_state.pwrStateResidencyTicks::UNDEFINED   6359544090                       # Cumulative time (in ticks) in various power states (Tick)
board.cache_hierarchy.clusters0.l1d_cache.tags.tagsInUse   507.900557                       # Average ticks per tags in use ((Tick/Count))
board.cache_hierarchy.clusters0.l1d_cache.tags.totalRefs      4392777                       # Total number of references to valid blocks. (Count)
board.cache_hierarchy.clusters0.l1d_cache.tags.sampledRefs        38770                       # Sample count of references to valid blocks. (Count)
board.cache_hierarchy.clusters0.l1d_cache.tags.avgRefs   113.303508                       # Average number of references to valid blocks. ((Count/Count))
board.cache_hierarchy.clusters0.l1d_cache.tags.warmupTick            0                       # The tick when the warmup percentage was hit. (Tick)
board.cache_hierarchy.clusters0.l1d_cache.tags.occupancies::cache_hierarchy.clusters0.l1d_cache.prefetcher   327.574634                       # Average occupied blocks per tick, per requestor ((Count/Tick))
board.cache_hierarchy.clusters0.l1d_cache.tags.occupancies::processor.cores0.core.data   180.325923                       # Average occupied blocks per tick, per requestor ((Count/Tick))
board.cache_hierarchy.clusters0.l1d_cache.tags.avgOccs::cache_hierarchy.clusters0.l1d_cache.prefetcher     0.639794                       # Average percentage of cache occupancy ((Ratio/Tick))
board.cache_hierarchy.clusters0.l1d_cache.tags.avgOccs::processor.cores0.core.data     0.352199                       # Average percentage of cache occupancy ((Ratio/Tick))
board.cache_hierarchy.clusters0.l1d_cache.tags.avgOccs::total     0.991993                       # Average percentage of cache occupancy ((Ratio/Tick))
board.cache_hierarchy.clusters0.l1d_cache.tags.occupanciesTaskId::1022          401                       # Occupied blocks per task id (Count)
board.cache_hierarchy.clusters0.l1d_cache.tags.occupanciesTaskId::1024          106                       # Occupied blocks per task id (Count)
board.cache_hierarchy.clusters0.l1d_cache.tags.ageTaskId_1022::0           31                       # Occupied blocks per task id, per block age (Count)
board.cache_hierarchy.clusters0.l1d_cache.tags.ageTaskId_1022::1          153                       # Occupied blocks per task id, per block age (Count)
board.cache_hierarchy.clusters0.l1d_cache.tags.ageTaskId_1022::2          202                       # Occupied blocks per task id, per block age (Count)
board.cache_hierarchy.clusters0.l1d_cache.tags.ageTaskId_1022::3           15                       # Occupied blocks per task id, per block age (Count)
board.cache_hierarchy.clusters0.l1d_cache.tags.ageTaskId_1024::0            8                       # Occupied blocks per task id, per block age (Count)
board.cache_hierarchy.clusters0.l1d_cache.tags.ageTaskId_1024::1           28                       # Occupied blocks per task id, per block age (Count)
board.cache_hierarchy.clusters0.l1d_cache.tags.ageTaskId_1024::2           32                       # Occupied blocks per task id, per block age (Count)
board.cache_hierarchy.clusters0.l1d_cache.tags.ageTaskId_1024::3           38                       # Occupied blocks per task id, per block age (Count)
board.cache_hierarchy.clusters0.l1d_cache.tags.ratioOccsTaskId::1022     0.783203                       # Ratio of occupied blocks and all blocks, per task id (Ratio)
board.cache_hierarchy.clusters0.l1d_cache.tags.ratioOccsTaskId::1024     0.207031                       # Ratio of occupied blocks and all blocks, per task id (Ratio)
board.cache_hierarchy.clusters0.l1d_cache.tags.tagAccesses      7050046                       # Number of tag accesses (Count)
board.cache_hierarchy.clusters0.l1d_cache.tags.dataAccesses      7050046                       # Number of data accesses (Count)
board.cache_hierarchy.clusters0.l1d_cache.tags.power_state.pwrStateResidencyTicks::UNDEFINED   6359544090                       # Cumulative time (in ticks) in various power states (Tick)
board.cache_hierarchy.clusters0.l1i_cache.demandHits::processor.cores0.core.inst       426245                       # number of demand (read+write) hits (Count)
board.cache_hierarchy.clusters0.l1i_cache.demandHits::total       426245                       # number of demand (read+write) hits (Count)
board.cache_hierarchy.clusters0.l1i_cache.overallHits::processor.cores0.core.inst       426245                       # number of overall hits (Count)
board.cache_hierarchy.clusters0.l1i_cache.overallHits::total       426245                       # number of overall hits (Count)
board.cache_hierarchy.clusters0.l1i_cache.demandMisses::processor.cores0.core.inst           56                       # number of demand (read+write) misses (Count)
board.cache_hierarchy.clusters0.l1i_cache.demandMisses::total           56                       # number of demand (read+write) misses (Count)
board.cache_hierarchy.clusters0.l1i_cache.overallMisses::processor.cores0.core.inst           56                       # number of overall misses (Count)
board.cache_hierarchy.clusters0.l1i_cache.overallMisses::total           56                       # number of overall misses (Count)
board.cache_hierarchy.clusters0.l1i_cache.demandMissLatency::processor.cores0.core.inst      1890441                       # number of demand (read+write) miss ticks (Tick)
board.cache_hierarchy.clusters0.l1i_cache.demandMissLatency::total      1890441                       # number of demand (read+write) miss ticks (Tick)
board.cache_hierarchy.clusters0.l1i_cache.overallMissLatency::processor.cores0.core.inst      1890441                       # number of overall miss ticks (Tick)
board.cache_hierarchy.clusters0.l1i_cache.overallMissLatency::total      1890441                       # number of overall miss ticks (Tick)
board.cache_hierarchy.clusters0.l1i_cache.demandAccesses::processor.cores0.core.inst       426301                       # number of demand (read+write) accesses (Count)
board.cache_hierarchy.clusters0.l1i_cache.demandAccesses::total       426301                       # number of demand (read+write) accesses (Count)
board.cache_hierarchy.clusters0.l1i_cache.overallAccesses::processor.cores0.core.inst       426301                       # number of overall (read+write) accesses (Count)
board.cache_hierarchy.clusters0.l1i_cache.overallAccesses::total       426301                       # number of overall (read+write) accesses (Count)
board.cache_hierarchy.clusters0.l1i_cache.demandMissRate::processor.cores0.core.inst     0.000131                       # miss rate for demand accesses (Ratio)
board.cache_hierarchy.clusters0.l1i_cache.demandMissRate::total     0.000131                       # miss rate for demand accesses (Ratio)
board.cache_hierarchy.clusters0.l1i_cache.overallMissRate::processor.cores0.core.inst     0.000131                       # miss rate for overall accesses (Ratio)
board.cache_hierarchy.clusters0.l1i_cache.overallMissRate::total     0.000131                       # miss rate for overall accesses (Ratio)
board.cache_hierarchy.clusters0.l1i_cache.demandAvgMissLatency::processor.cores0.core.inst 33757.875000                       # average overall miss latency in ticks ((Tick/Count))
board.cache_hierarchy.clusters0.l1i_cache.demandAvgMissLatency::total 33757.875000                       # average overall miss latency in ticks ((Tick/Count))
board.cache_hierarchy.clusters0.l1i_cache.overallAvgMissLatency::processor.cores0.core.inst 33757.875000                       # average overall miss latency ((Tick/Count))
board.cache_hierarchy.clusters0.l1i_cache.overallAvgMissLatency::total 33757.875000                       # average overall miss latency ((Tick/Count))
board.cache_hierarchy.clusters0.l1i_cache.blockedCycles::no_mshrs            0                       # number of cycles access was blocked (Cycle)
board.cache_hierarchy.clusters0.l1i_cache.blockedCycles::no_wbuffers            0                       # number of cycles access was blocked (Cycle)
board.cache_hierarchy.clusters0.l1i_cache.blockedCycles::no_targets            0                       # number of cycles access was blocked (Cycle)
board.cache_hierarchy.clusters0.l1i_cache.blockedCauses::no_mshrs            0                       # number of times access was blocked (Count)
board.cache_hierarchy.clusters0.l1i_cache.blockedCauses::no_wbuffers            0                       # number of times access was blocked (Count)
board.cache_hierarchy.clusters0.l1i_cache.blockedCauses::no_targets            0                       # number of times access was blocked (Count)
board.cache_hierarchy.clusters0.l1i_cache.avgBlocked::no_mshrs          nan                       # average number of cycles each access was blocked ((Cycle/Count))
board.cache_hierarchy.clusters0.l1i_cache.avgBlocked::no_wbuffers          nan                       # average number of cycles each access was blocked ((Cycle/Count))
board.cache_hierarchy.clusters0.l1i_cache.avgBlocked::no_targets          nan                       # average number of cycles each access was blocked ((Cycle/Count))
board.cache_hierarchy.clusters0.l1i_cache.writebacks::writebacks           57                       # number of writebacks (Count)
board.cache_hierarchy.clusters0.l1i_cache.writebacks::total           57                       # number of writebacks (Count)
board.cache_hierarchy.clusters0.l1i_cache.demandMshrMisses::processor.cores0.core.inst           56                       # number of demand (read+write) MSHR misses (Count)
board.cache_hierarchy.clusters0.l1i_cache.demandMshrMisses::total           56                       # number of demand (read+write) MSHR misses (Count)
board.cache_hierarchy.clusters0.l1i_cache.overallMshrMisses::processor.cores0.core.inst           56                       # number of overall MSHR misses (Count)
board.cache_hierarchy.clusters0.l1i_cache.overallMshrMisses::total           56                       # number of overall MSHR misses (Count)
board.cache_hierarchy.clusters0.l1i_cache.demandMshrMissLatency::processor.cores0.core.inst      1871460                       # number of demand (read+write) MSHR miss ticks (Tick)
board.cache_hierarchy.clusters0.l1i_cache.demandMshrMissLatency::total      1871460                       # number of demand (read+write) MSHR miss ticks (Tick)
board.cache_hierarchy.clusters0.l1i_cache.overallMshrMissLatency::processor.cores0.core.inst      1871460                       # number of overall MSHR miss ticks (Tick)
board.cache_hierarchy.clusters0.l1i_cache.overallMshrMissLatency::total      1871460                       # number of overall MSHR miss ticks (Tick)
board.cache_hierarchy.clusters0.l1i_cache.demandMshrMissRate::processor.cores0.core.inst     0.000131                       # mshr miss ratio for demand accesses (Ratio)
board.cache_hierarchy.clusters0.l1i_cache.demandMshrMissRate::total     0.000131                       # mshr miss ratio for demand accesses (Ratio)
board.cache_hierarchy.clusters0.l1i_cache.overallMshrMissRate::processor.cores0.core.inst     0.000131                       # mshr miss ratio for overall accesses (Ratio)
board.cache_hierarchy.clusters0.l1i_cache.overallMshrMissRate::total     0.000131                       # mshr miss ratio for overall accesses (Ratio)
board.cache_hierarchy.clusters0.l1i_cache.demandAvgMshrMissLatency::processor.cores0.core.inst 33418.928571                       # average overall mshr miss latency ((Tick/Count))
board.cache_hierarchy.clusters0.l1i_cache.demandAvgMshrMissLatency::total 33418.928571                       # average overall mshr miss latency ((Tick/Count))
board.cache_hierarchy.clusters0.l1i_cache.overallAvgMshrMissLatency::processor.cores0.core.inst 33418.928571                       # average overall mshr miss latency ((Tick/Count))
board.cache_hierarchy.clusters0.l1i_cache.overallAvgMshrMissLatency::total 33418.928571                       # average overall mshr miss latency ((Tick/Count))
board.cache_hierarchy.clusters0.l1i_cache.replacements           57                       # number of replacements (Count)
board.cache_hierarchy.clusters0.l1i_cache.ReadReq.hits::processor.cores0.core.inst       426245                       # number of ReadReq hits (Count)
board.cache_hierarchy.clusters0.l1i_cache.ReadReq.hits::total       426245                       # number of ReadReq hits (Count)
board.cache_hierarchy.clusters0.l1i_cache.ReadReq.misses::processor.cores0.core.inst           56                       # number of ReadReq misses (Count)
board.cache_hierarchy.clusters0.l1i_cache.ReadReq.misses::total           56                       # number of ReadReq misses (Count)
board.cache_hierarchy.clusters0.l1i_cache.ReadReq.missLatency::processor.cores0.core.inst      1890441                       # number of ReadReq miss ticks (Tick)
board.cache_hierarchy.clusters0.l1i_cache.ReadReq.missLatency::total      1890441                       # number of ReadReq miss ticks (Tick)
board.cache_hierarchy.clusters0.l1i_cache.ReadReq.accesses::processor.cores0.core.inst       426301                       # number of ReadReq accesses(hits+misses) (Count)
board.cache_hierarchy.clusters0.l1i_cache.ReadReq.accesses::total       426301                       # number of ReadReq accesses(hits+misses) (Count)
board.cache_hierarchy.clusters0.l1i_cache.ReadReq.missRate::processor.cores0.core.inst     0.000131                       # miss rate for ReadReq accesses (Ratio)
board.cache_hierarchy.clusters0.l1i_cache.ReadReq.missRate::total     0.000131                       # miss rate for ReadReq accesses (Ratio)
board.cache_hierarchy.clusters0.l1i_cache.ReadReq.avgMissLatency::processor.cores0.core.inst 33757.875000                       # average ReadReq miss latency ((Tick/Count))
board.cache_hierarchy.clusters0.l1i_cache.ReadReq.avgMissLatency::total 33757.875000                       # average ReadReq miss latency ((Tick/Count))
board.cache_hierarchy.clusters0.l1i_cache.ReadReq.mshrMisses::processor.cores0.core.inst           56                       # number of ReadReq MSHR misses (Count)
board.cache_hierarchy.clusters0.l1i_cache.ReadReq.mshrMisses::total           56                       # number of ReadReq MSHR misses (Count)
board.cache_hierarchy.clusters0.l1i_cache.ReadReq.mshrMissLatency::processor.cores0.core.inst      1871460                       # number of ReadReq MSHR miss ticks (Tick)
board.cache_hierarchy.clusters0.l1i_cache.ReadReq.mshrMissLatency::total      1871460                       # number of ReadReq MSHR miss ticks (Tick)
board.cache_hierarchy.clusters0.l1i_cache.ReadReq.mshrMissRate::processor.cores0.core.inst     0.000131                       # mshr miss rate for ReadReq accesses (Ratio)
board.cache_hierarchy.clusters0.l1i_cache.ReadReq.mshrMissRate::total     0.000131                       # mshr miss rate for ReadReq accesses (Ratio)
board.cache_hierarchy.clusters0.l1i_cache.ReadReq.avgMshrMissLatency::processor.cores0.core.inst 33418.928571                       # average ReadReq mshr miss latency ((Tick/Count))
board.cache_hierarchy.clusters0.l1i_cache.ReadReq.avgMshrMissLatency::total 33418.928571                       # average ReadReq mshr miss latency ((Tick/Count))
board.cache_hierarchy.clusters0.l1i_cache.power_state.pwrStateResidencyTicks::UNDEFINED   6359544090                       # Cumulative time (in ticks) in various power states (Tick)
board.cache_hierarchy.clusters0.l1i_cache.prefetcher.demandMshrMisses           56                       # demands not covered by prefetchs (Count)
board.cache_hierarchy.clusters0.l1i_cache.prefetcher.pfIssued            0                       # number of hwpf issued (Count)
board.cache_hierarchy.clusters0.l1i_cache.prefetcher.pfUseful            0                       # number of useful prefetch (Count)
board.cache_hierarchy.clusters0.l1i_cache.prefetcher.pfUsefulButMiss            0                       # number of hit on prefetch but cache block is not in an usable state (Count)
board.cache_hierarchy.clusters0.l1i_cache.prefetcher.accuracy          nan                       # accuracy of the prefetcher (Count)
board.cache_hierarchy.clusters0.l1i_cache.prefetcher.coverage            0                       # coverage brought by this prefetcher (Count)
board.cache_hierarchy.clusters0.l1i_cache.prefetcher.pfHitInCache            0                       # number of prefetches hitting in cache (Count)
board.cache_hierarchy.clusters0.l1i_cache.prefetcher.pfHitInMSHR            0                       # number of prefetches hitting in a MSHR (Count)
board.cache_hierarchy.clusters0.l1i_cache.prefetcher.pfHitInWB            0                       # number of prefetches hit in the Write Buffer (Count)
board.cache_hierarchy.clusters0.l1i_cache.prefetcher.pfLate            0                       # number of late prefetches (hitting in cache, MSHR or WB) (Count)
board.cache_hierarchy.clusters0.l1i_cache.prefetcher.pfIdentified            0                       # number of prefetch candidates identified (Count)
board.cache_hierarchy.clusters0.l1i_cache.prefetcher.pfBufferHit            0                       # number of redundant prefetches already in prefetch queue (Count)
board.cache_hierarchy.clusters0.l1i_cache.prefetcher.pfInCache            0                       # number of redundant prefetches already in cache/mshr dropped (Count)
board.cache_hierarchy.clusters0.l1i_cache.prefetcher.pfRemovedDemand            0                       # number of prefetches dropped due to a demand for the same address (Count)
board.cache_hierarchy.clusters0.l1i_cache.prefetcher.pfRemovedFull            0                       # number of prefetches dropped due to prefetch queue size (Count)
board.cache_hierarchy.clusters0.l1i_cache.prefetcher.pfSpanPage            0                       # number of prefetches that crossed the page (Count)
board.cache_hierarchy.clusters0.l1i_cache.prefetcher.pfUsefulSpanPage            0                       # number of prefetches that is useful and crossed the page (Count)
board.cache_hierarchy.clusters0.l1i_cache.prefetcher.power_state.pwrStateResidencyTicks::UNDEFINED   6359544090                       # Cumulative time (in ticks) in various power states (Tick)
board.cache_hierarchy.clusters0.l1i_cache.tags.tagsInUse          512                       # Average ticks per tags in use ((Tick/Count))
board.cache_hierarchy.clusters0.l1i_cache.tags.totalRefs         3023                       # Total number of references to valid blocks. (Count)
board.cache_hierarchy.clusters0.l1i_cache.tags.sampledRefs           57                       # Sample count of references to valid blocks. (Count)
board.cache_hierarchy.clusters0.l1i_cache.tags.avgRefs    53.035088                       # Average number of references to valid blocks. ((Count/Count))
board.cache_hierarchy.clusters0.l1i_cache.tags.warmupTick            0                       # The tick when the warmup percentage was hit. (Tick)
board.cache_hierarchy.clusters0.l1i_cache.tags.occupancies::processor.cores0.core.inst          512                       # Average occupied blocks per tick, per requestor ((Count/Tick))
board.cache_hierarchy.clusters0.l1i_cache.tags.avgOccs::processor.cores0.core.inst            1                       # Average percentage of cache occupancy ((Ratio/Tick))
board.cache_hierarchy.clusters0.l1i_cache.tags.avgOccs::total            1                       # Average percentage of cache occupancy ((Ratio/Tick))
board.cache_hierarchy.clusters0.l1i_cache.tags.occupanciesTaskId::1024          512                       # Occupied blocks per task id (Count)
board.cache_hierarchy.clusters0.l1i_cache.tags.ageTaskId_1024::0            1                       # Occupied blocks per task id, per block age (Count)
board.cache_hierarchy.clusters0.l1i_cache.tags.ageTaskId_1024::3          511                       # Occupied blocks per task id, per block age (Count)
board.cache_hierarchy.clusters0.l1i_cache.tags.ratioOccsTaskId::1024            1                       # Ratio of occupied blocks and all blocks, per task id (Ratio)
board.cache_hierarchy.clusters0.l1i_cache.tags.tagAccesses      3410465                       # Number of tag accesses (Count)
board.cache_hierarchy.clusters0.l1i_cache.tags.dataAccesses      3410465                       # Number of data accesses (Count)
board.cache_hierarchy.clusters0.l1i_cache.tags.power_state.pwrStateResidencyTicks::UNDEFINED   6359544090                       # Cumulative time (in ticks) in various power states (Tick)
board.cache_hierarchy.clusters0.l2_bus.transDist::ReadResp        39140                       # Transaction distribution (Count)
board.cache_hierarchy.clusters0.l2_bus.transDist::ReadRespWithInvalidate         9641                       # Transaction distribution (Count)
board.cache_hierarchy.clusters0.l2_bus.transDist::WritebackDirty          990                       # Transaction distribution (Count)
board.cache_hierarchy.clusters0.l2_bus.transDist::WritebackClean          984                       # Transaction distribution (Count)
board.cache_hierarchy.clusters0.l2_bus.transDist::CleanEvict         1110                       # Transaction distribution (Count)
board.cache_hierarchy.clusters0.l2_bus.transDist::HardPFReq         1224                       # Transaction distribution (Count)
board.cache_hierarchy.clusters0.l2_bus.transDist::UpgradeReq        30720                       # Transaction distribution (Count)
board.cache_hierarchy.clusters0.l2_bus.transDist::SCUpgradeReq          199                       # Transaction distribution (Count)
board.cache_hierarchy.clusters0.l2_bus.transDist::UpgradeResp        11085                       # Transaction distribution (Count)
board.cache_hierarchy.clusters0.l2_bus.transDist::SCUpgradeFailReq           50                       # Transaction distribution (Count)
board.cache_hierarchy.clusters0.l2_bus.transDist::UpgradeFailResp            1                       # Transaction distribution (Count)
board.cache_hierarchy.clusters0.l2_bus.transDist::ReadExReq        49565                       # Transaction distribution (Count)
board.cache_hierarchy.clusters0.l2_bus.transDist::ReadExResp        31205                       # Transaction distribution (Count)
board.cache_hierarchy.clusters0.l2_bus.transDist::ReadSharedReq        76692                       # Transaction distribution (Count)
board.cache_hierarchy.clusters0.l2_bus.pktCount_board.cache_hierarchy.clusters0.l1d_cache.mem_side_port::board.cache_hierarchy.clusters0.l2_cache.cpu_side_port       139990                       # Packet count per connected requestor and responder (Count)
board.cache_hierarchy.clusters0.l2_bus.pktCount_board.cache_hierarchy.clusters0.l1i_cache.mem_side_port::board.cache_hierarchy.clusters0.l2_cache.cpu_side_port          170                       # Packet count per connected requestor and responder (Count)
board.cache_hierarchy.clusters0.l2_bus.pktCount::total       140160                       # Packet count per connected requestor and responder (Count)
board.cache_hierarchy.clusters0.l2_bus.pktSize_board.cache_hierarchy.clusters0.l1d_cache.mem_side_port::board.cache_hierarchy.clusters0.l2_cache.cpu_side_port      5233728                       # Cumulative packet size per connected requestor and responder (Byte)
board.cache_hierarchy.clusters0.l2_bus.pktSize_board.cache_hierarchy.clusters0.l1i_cache.mem_side_port::board.cache_hierarchy.clusters0.l2_cache.cpu_side_port         7296                       # Cumulative packet size per connected requestor and responder (Byte)
board.cache_hierarchy.clusters0.l2_bus.pktSize::total      5241024                       # Cumulative packet size per connected requestor and responder (Byte)
board.cache_hierarchy.clusters0.l2_bus.snoops       156333                       # Total snoops (Count)
board.cache_hierarchy.clusters0.l2_bus.snoopTraffic      2638976                       # Total snoop traffic (Byte)
board.cache_hierarchy.clusters0.l2_bus.snoopFanout::samples       159630                       # Request fanout histogram (Count)
board.cache_hierarchy.clusters0.l2_bus.snoopFanout::mean     0.647435                       # Request fanout histogram (Count)
board.cache_hierarchy.clusters0.l2_bus.snoopFanout::stdev     0.477770                       # Request fanout histogram (Count)
board.cache_hierarchy.clusters0.l2_bus.snoopFanout::underflows            0      0.00%      0.00% # Request fanout histogram (Count)
board.cache_hierarchy.clusters0.l2_bus.snoopFanout::0        56280     35.26%     35.26% # Request fanout histogram (Count)
board.cache_hierarchy.clusters0.l2_bus.snoopFanout::1       103350     64.74%    100.00% # Request fanout histogram (Count)
board.cache_hierarchy.clusters0.l2_bus.snoopFanout::2            0      0.00%    100.00% # Request fanout histogram (Count)
board.cache_hierarchy.clusters0.l2_bus.snoopFanout::3            0      0.00%    100.00% # Request fanout histogram (Count)
board.cache_hierarchy.clusters0.l2_bus.snoopFanout::4            0      0.00%    100.00% # Request fanout histogram (Count)
board.cache_hierarchy.clusters0.l2_bus.snoopFanout::overflows            0      0.00%    100.00% # Request fanout histogram (Count)
board.cache_hierarchy.clusters0.l2_bus.snoopFanout::min_value            0                       # Request fanout histogram (Count)
board.cache_hierarchy.clusters0.l2_bus.snoopFanout::max_value            1                       # Request fanout histogram (Count)
board.cache_hierarchy.clusters0.l2_bus.snoopFanout::total       159630                       # Request fanout histogram (Count)
board.cache_hierarchy.clusters0.l2_bus.power_state.pwrStateResidencyTicks::UNDEFINED   6359544090                       # Cumulative time (in ticks) in various power states (Tick)
board.cache_hierarchy.clusters0.l2_bus.reqLayer0.occupancy     19467995                       # Layer occupancy (ticks) (Tick)
board.cache_hierarchy.clusters0.l2_bus.reqLayer0.utilization          0.0                       # Layer utilization (Ratio)
board.cache_hierarchy.clusters0.l2_bus.respLayer0.occupancy     41511780                       # Layer occupancy (ticks) (Tick)
board.cache_hierarchy.clusters0.l2_bus.respLayer0.utilization          0.0                       # Layer utilization (Ratio)
board.cache_hierarchy.clusters0.l2_bus.respLayer1.occupancy        56943                       # Layer occupancy (ticks) (Tick)
board.cache_hierarchy.clusters0.l2_bus.respLayer1.utilization          0.0                       # Layer utilization (Ratio)
board.cache_hierarchy.clusters0.l2_bus.snoopLayer0.occupancy     42585465                       # Layer occupancy (ticks) (Tick)
board.cache_hierarchy.clusters0.l2_bus.snoopLayer0.utilization          0.0                       # Layer utilization (Ratio)
board.cache_hierarchy.clusters0.l2_bus.snoop_filter.totRequests        49088                       # Total number of requests made to the snoop filter. (Count)
board.cache_hierarchy.clusters0.l2_bus.snoop_filter.hitSingleRequests        20955                       # Number of requests hitting in the snoop filter with a single holder of the requested data. (Count)
board.cache_hierarchy.clusters0.l2_bus.snoop_filter.hitMultiRequests            0                       # Number of requests hitting in the snoop filter with multiple (>1) holders of the requested data. (Count)
board.cache_hierarchy.clusters0.l2_bus.snoop_filter.totSnoops       103350                       # Total number of snoops made to the snoop filter. (Count)
board.cache_hierarchy.clusters0.l2_bus.snoop_filter.hitSingleSnoops       103350                       # Number of snoops hitting in the snoop filter with a single holder of the requested data. (Count)
board.cache_hierarchy.clusters0.l2_bus.snoop_filter.hitMultiSnoops            0                       # Number of snoops hitting in the snoop filter with multiple (>1) holders of the requested data. (Count)
board.cache_hierarchy.clusters0.l2_cache.demandHits::cache_hierarchy.clusters0.l1d_cache.prefetcher          762                       # number of demand (read+write) hits (Count)
board.cache_hierarchy.clusters0.l2_cache.demandHits::processor.cores0.core.inst           26                       # number of demand (read+write) hits (Count)
board.cache_hierarchy.clusters0.l2_cache.demandHits::processor.cores0.core.data          369                       # number of demand (read+write) hits (Count)
board.cache_hierarchy.clusters0.l2_cache.demandHits::total         1157                       # number of demand (read+write) hits (Count)
board.cache_hierarchy.clusters0.l2_cache.overallHits::cache_hierarchy.clusters0.l1d_cache.prefetcher          762                       # number of overall hits (Count)
board.cache_hierarchy.clusters0.l2_cache.overallHits::processor.cores0.core.inst           26                       # number of overall hits (Count)
board.cache_hierarchy.clusters0.l2_cache.overallHits::processor.cores0.core.data          369                       # number of overall hits (Count)
board.cache_hierarchy.clusters0.l2_cache.overallHits::total         1157                       # number of overall hits (Count)
board.cache_hierarchy.clusters0.l2_cache.demandMisses::cache_hierarchy.clusters0.l1d_cache.prefetcher          251                       # number of demand (read+write) misses (Count)
board.cache_hierarchy.clusters0.l2_cache.demandMisses::processor.cores0.core.inst           30                       # number of demand (read+write) misses (Count)
board.cache_hierarchy.clusters0.l2_cache.demandMisses::processor.cores0.core.data        32831                       # number of demand (read+write) misses (Count)
board.cache_hierarchy.clusters0.l2_cache.demandMisses::total        33112                       # number of demand (read+write) misses (Count)
board.cache_hierarchy.clusters0.l2_cache.overallMisses::cache_hierarchy.clusters0.l1d_cache.prefetcher          251                       # number of overall misses (Count)
board.cache_hierarchy.clusters0.l2_cache.overallMisses::processor.cores0.core.inst           30                       # number of overall misses (Count)
board.cache_hierarchy.clusters0.l2_cache.overallMisses::processor.cores0.core.data        32831                       # number of overall misses (Count)
board.cache_hierarchy.clusters0.l2_cache.overallMisses::total        33112                       # number of overall misses (Count)
board.cache_hierarchy.clusters0.l2_cache.demandMissLatency::cache_hierarchy.clusters0.l1d_cache.prefetcher      3230760                       # number of demand (read+write) miss ticks (Tick)
board.cache_hierarchy.clusters0.l2_cache.demandMissLatency::processor.cores0.core.inst      1737927                       # number of demand (read+write) miss ticks (Tick)
board.cache_hierarchy.clusters0.l2_cache.demandMissLatency::processor.cores0.core.data    508867698                       # number of demand (read+write) miss ticks (Tick)
board.cache_hierarchy.clusters0.l2_cache.demandMissLatency::total    513836385                       # number of demand (read+write) miss ticks (Tick)
board.cache_hierarchy.clusters0.l2_cache.overallMissLatency::cache_hierarchy.clusters0.l1d_cache.prefetcher      3230760                       # number of overall miss ticks (Tick)
board.cache_hierarchy.clusters0.l2_cache.overallMissLatency::processor.cores0.core.inst      1737927                       # number of overall miss ticks (Tick)
board.cache_hierarchy.clusters0.l2_cache.overallMissLatency::processor.cores0.core.data    508867698                       # number of overall miss ticks (Tick)
board.cache_hierarchy.clusters0.l2_cache.overallMissLatency::total    513836385                       # number of overall miss ticks (Tick)
board.cache_hierarchy.clusters0.l2_cache.demandAccesses::cache_hierarchy.clusters0.l1d_cache.prefetcher         1013                       # number of demand (read+write) accesses (Count)
board.cache_hierarchy.clusters0.l2_cache.demandAccesses::processor.cores0.core.inst           56                       # number of demand (read+write) accesses (Count)
board.cache_hierarchy.clusters0.l2_cache.demandAccesses::processor.cores0.core.data        33200                       # number of demand (read+write) accesses (Count)
board.cache_hierarchy.clusters0.l2_cache.demandAccesses::total        34269                       # number of demand (read+write) accesses (Count)
board.cache_hierarchy.clusters0.l2_cache.overallAccesses::cache_hierarchy.clusters0.l1d_cache.prefetcher         1013                       # number of overall (read+write) accesses (Count)
board.cache_hierarchy.clusters0.l2_cache.overallAccesses::processor.cores0.core.inst           56                       # number of overall (read+write) accesses (Count)
board.cache_hierarchy.clusters0.l2_cache.overallAccesses::processor.cores0.core.data        33200                       # number of overall (read+write) accesses (Count)
board.cache_hierarchy.clusters0.l2_cache.overallAccesses::total        34269                       # number of overall (read+write) accesses (Count)
board.cache_hierarchy.clusters0.l2_cache.demandMissRate::cache_hierarchy.clusters0.l1d_cache.prefetcher     0.247779                       # miss rate for demand accesses (Ratio)
board.cache_hierarchy.clusters0.l2_cache.demandMissRate::processor.cores0.core.inst     0.535714                       # miss rate for demand accesses (Ratio)
board.cache_hierarchy.clusters0.l2_cache.demandMissRate::processor.cores0.core.data     0.988886                       # miss rate for demand accesses (Ratio)
board.cache_hierarchy.clusters0.l2_cache.demandMissRate::total     0.966238                       # miss rate for demand accesses (Ratio)
board.cache_hierarchy.clusters0.l2_cache.overallMissRate::cache_hierarchy.clusters0.l1d_cache.prefetcher     0.247779                       # miss rate for overall accesses (Ratio)
board.cache_hierarchy.clusters0.l2_cache.overallMissRate::processor.cores0.core.inst     0.535714                       # miss rate for overall accesses (Ratio)
board.cache_hierarchy.clusters0.l2_cache.overallMissRate::processor.cores0.core.data     0.988886                       # miss rate for overall accesses (Ratio)
board.cache_hierarchy.clusters0.l2_cache.overallMissRate::total     0.966238                       # miss rate for overall accesses (Ratio)
board.cache_hierarchy.clusters0.l2_cache.demandAvgMissLatency::cache_hierarchy.clusters0.l1d_cache.prefetcher 12871.553785                       # average overall miss latency in ticks ((Tick/Count))
board.cache_hierarchy.clusters0.l2_cache.demandAvgMissLatency::processor.cores0.core.inst 57930.900000                       # average overall miss latency in ticks ((Tick/Count))
board.cache_hierarchy.clusters0.l2_cache.demandAvgMissLatency::processor.cores0.core.data 15499.610064                       # average overall miss latency in ticks ((Tick/Count))
board.cache_hierarchy.clusters0.l2_cache.demandAvgMissLatency::total 15518.131946                       # average overall miss latency in ticks ((Tick/Count))
board.cache_hierarchy.clusters0.l2_cache.overallAvgMissLatency::cache_hierarchy.clusters0.l1d_cache.prefetcher 12871.553785                       # average overall miss latency ((Tick/Count))
board.cache_hierarchy.clusters0.l2_cache.overallAvgMissLatency::processor.cores0.core.inst 57930.900000                       # average overall miss latency ((Tick/Count))
board.cache_hierarchy.clusters0.l2_cache.overallAvgMissLatency::processor.cores0.core.data 15499.610064                       # average overall miss latency ((Tick/Count))
board.cache_hierarchy.clusters0.l2_cache.overallAvgMissLatency::total 15518.131946                       # average overall miss latency ((Tick/Count))
board.cache_hierarchy.clusters0.l2_cache.blockedCycles::no_mshrs            0                       # number of cycles access was blocked (Cycle)
board.cache_hierarchy.clusters0.l2_cache.blockedCycles::no_wbuffers            0                       # number of cycles access was blocked (Cycle)
board.cache_hierarchy.clusters0.l2_cache.blockedCycles::no_targets            0                       # number of cycles access was blocked (Cycle)
board.cache_hierarchy.clusters0.l2_cache.blockedCauses::no_mshrs            0                       # number of times access was blocked (Count)
board.cache_hierarchy.clusters0.l2_cache.blockedCauses::no_wbuffers            0                       # number of times access was blocked (Count)
board.cache_hierarchy.clusters0.l2_cache.blockedCauses::no_targets            0                       # number of times access was blocked (Count)
board.cache_hierarchy.clusters0.l2_cache.avgBlocked::no_mshrs          nan                       # average number of cycles each access was blocked ((Cycle/Count))
board.cache_hierarchy.clusters0.l2_cache.avgBlocked::no_wbuffers          nan                       # average number of cycles each access was blocked ((Cycle/Count))
board.cache_hierarchy.clusters0.l2_cache.avgBlocked::no_targets          nan                       # average number of cycles each access was blocked ((Cycle/Count))
board.cache_hierarchy.clusters0.l2_cache.writebacks::writebacks           70                       # number of writebacks (Count)
board.cache_hierarchy.clusters0.l2_cache.writebacks::total           70                       # number of writebacks (Count)
board.cache_hierarchy.clusters0.l2_cache.demandMshrHits::cache_hierarchy.clusters0.l1d_cache.prefetcher          155                       # number of demand (read+write) MSHR hits (Count)
board.cache_hierarchy.clusters0.l2_cache.demandMshrHits::total          155                       # number of demand (read+write) MSHR hits (Count)
board.cache_hierarchy.clusters0.l2_cache.overallMshrHits::cache_hierarchy.clusters0.l1d_cache.prefetcher          155                       # number of overall MSHR hits (Count)
board.cache_hierarchy.clusters0.l2_cache.overallMshrHits::total          155                       # number of overall MSHR hits (Count)
board.cache_hierarchy.clusters0.l2_cache.demandMshrMisses::cache_hierarchy.clusters0.l1d_cache.prefetcher           96                       # number of demand (read+write) MSHR misses (Count)
board.cache_hierarchy.clusters0.l2_cache.demandMshrMisses::processor.cores0.core.inst           30                       # number of demand (read+write) MSHR misses (Count)
board.cache_hierarchy.clusters0.l2_cache.demandMshrMisses::processor.cores0.core.data        32831                       # number of demand (read+write) MSHR misses (Count)
board.cache_hierarchy.clusters0.l2_cache.demandMshrMisses::total        32957                       # number of demand (read+write) MSHR misses (Count)
board.cache_hierarchy.clusters0.l2_cache.overallMshrMisses::cache_hierarchy.clusters0.l1d_cache.prefetcher           96                       # number of overall MSHR misses (Count)
board.cache_hierarchy.clusters0.l2_cache.overallMshrMisses::cache_hierarchy.clusters0.l2_cache.prefetcher          855                       # number of overall MSHR misses (Count)
board.cache_hierarchy.clusters0.l2_cache.overallMshrMisses::processor.cores0.core.inst           30                       # number of overall MSHR misses (Count)
board.cache_hierarchy.clusters0.l2_cache.overallMshrMisses::processor.cores0.core.data        32831                       # number of overall MSHR misses (Count)
board.cache_hierarchy.clusters0.l2_cache.overallMshrMisses::total        33812                       # number of overall MSHR misses (Count)
board.cache_hierarchy.clusters0.l2_cache.demandMshrMissLatency::cache_hierarchy.clusters0.l1d_cache.prefetcher      1596402                       # number of demand (read+write) MSHR miss ticks (Tick)
board.cache_hierarchy.clusters0.l2_cache.demandMshrMissLatency::processor.cores0.core.inst      1727604                       # number of demand (read+write) MSHR miss ticks (Tick)
board.cache_hierarchy.clusters0.l2_cache.demandMshrMissLatency::processor.cores0.core.data    496418826                       # number of demand (read+write) MSHR miss ticks (Tick)
board.cache_hierarchy.clusters0.l2_cache.demandMshrMissLatency::total    499742832                       # number of demand (read+write) MSHR miss ticks (Tick)
board.cache_hierarchy.clusters0.l2_cache.overallMshrMissLatency::cache_hierarchy.clusters0.l1d_cache.prefetcher      1596402                       # number of overall MSHR miss ticks (Tick)
board.cache_hierarchy.clusters0.l2_cache.overallMshrMissLatency::cache_hierarchy.clusters0.l2_cache.prefetcher     11774712                       # number of overall MSHR miss ticks (Tick)
board.cache_hierarchy.clusters0.l2_cache.overallMshrMissLatency::processor.cores0.core.inst      1727604                       # number of overall MSHR miss ticks (Tick)
board.cache_hierarchy.clusters0.l2_cache.overallMshrMissLatency::processor.cores0.core.data    496418826                       # number of overall MSHR miss ticks (Tick)
board.cache_hierarchy.clusters0.l2_cache.overallMshrMissLatency::total    511517544                       # number of overall MSHR miss ticks (Tick)
board.cache_hierarchy.clusters0.l2_cache.demandMshrMissRate::cache_hierarchy.clusters0.l1d_cache.prefetcher     0.094768                       # mshr miss ratio for demand accesses (Ratio)
board.cache_hierarchy.clusters0.l2_cache.demandMshrMissRate::processor.cores0.core.inst     0.535714                       # mshr miss ratio for demand accesses (Ratio)
board.cache_hierarchy.clusters0.l2_cache.demandMshrMissRate::processor.cores0.core.data     0.988886                       # mshr miss ratio for demand accesses (Ratio)
board.cache_hierarchy.clusters0.l2_cache.demandMshrMissRate::total     0.961715                       # mshr miss ratio for demand accesses (Ratio)
board.cache_hierarchy.clusters0.l2_cache.overallMshrMissRate::cache_hierarchy.clusters0.l1d_cache.prefetcher     0.094768                       # mshr miss ratio for overall accesses (Ratio)
board.cache_hierarchy.clusters0.l2_cache.overallMshrMissRate::cache_hierarchy.clusters0.l2_cache.prefetcher          inf                       # mshr miss ratio for overall accesses (Ratio)
board.cache_hierarchy.clusters0.l2_cache.overallMshrMissRate::processor.cores0.core.inst     0.535714                       # mshr miss ratio for overall accesses (Ratio)
board.cache_hierarchy.clusters0.l2_cache.overallMshrMissRate::processor.cores0.core.data     0.988886                       # mshr miss ratio for overall accesses (Ratio)
board.cache_hierarchy.clusters0.l2_cache.overallMshrMissRate::total     0.986664                       # mshr miss ratio for overall accesses (Ratio)
board.cache_hierarchy.clusters0.l2_cache.demandAvgMshrMissLatency::cache_hierarchy.clusters0.l1d_cache.prefetcher 16629.187500                       # average overall mshr miss latency ((Tick/Count))
board.cache_hierarchy.clusters0.l2_cache.demandAvgMshrMissLatency::processor.cores0.core.inst 57586.800000                       # average overall mshr miss latency ((Tick/Count))
board.cache_hierarchy.clusters0.l2_cache.demandAvgMshrMissLatency::processor.cores0.core.data 15120.429655                       # average overall mshr miss latency ((Tick/Count))
board.cache_hierarchy.clusters0.l2_cache.demandAvgMshrMissLatency::total 15163.480657                       # average overall mshr miss latency ((Tick/Count))
board.cache_hierarchy.clusters0.l2_cache.overallAvgMshrMissLatency::cache_hierarchy.clusters0.l1d_cache.prefetcher 16629.187500                       # average overall mshr miss latency ((Tick/Count))
board.cache_hierarchy.clusters0.l2_cache.overallAvgMshrMissLatency::cache_hierarchy.clusters0.l2_cache.prefetcher 13771.592982                       # average overall mshr miss latency ((Tick/Count))
board.cache_hierarchy.clusters0.l2_cache.overallAvgMshrMissLatency::processor.cores0.core.inst 57586.800000                       # average overall mshr miss latency ((Tick/Count))
board.cache_hierarchy.clusters0.l2_cache.overallAvgMshrMissLatency::processor.cores0.core.data 15120.429655                       # average overall mshr miss latency ((Tick/Count))
board.cache_hierarchy.clusters0.l2_cache.overallAvgMshrMissLatency::total 15128.284159                       # average overall mshr miss latency ((Tick/Count))
board.cache_hierarchy.clusters0.l2_cache.replacements         1180                       # number of replacements (Count)
board.cache_hierarchy.clusters0.l2_cache.HardPFReq.mshrMisses::cache_hierarchy.clusters0.l2_cache.prefetcher          855                       # number of HardPFReq MSHR misses (Count)
board.cache_hierarchy.clusters0.l2_cache.HardPFReq.mshrMisses::total          855                       # number of HardPFReq MSHR misses (Count)
[...]
board.processor.cores3.core.commitStats0.committedInstType::SimdFloatDiv            0      0.00%     50.80% # Class of committed instruction. (Count)
board.processor.cores3.core.commitStats0.committedInstType::SimdFloatMisc            0      0.00%     50.80% # Class of committed instruction. (Count)
board.processor.cores3.core.commitStats0.committedInstType::SimdFloatMult            0      0.00%     50.80% # Class of committed instruction. (Count)
board.processor.cores3.core.commitStats0.committedInstType::SimdFloatMultAcc            0      0.00%     50.80% # Class of committed instruction. (Count)
board.processor.cores3.core.commitStats0.committedInstType::SimdFloatMatMultAcc            0      0.00%     50.80% # Class of committed instruction. (Count)
board.processor.cores3.core.commitStats0.committedInstType::SimdFloatSqrt            0      0.00%     50.80% # Class of committed instruction. (Count)
board.processor.cores3.core.commitStats0.committedInstType::SimdReduceAdd            0      0.00%     50.80% # Class of committed instruction. (Count)
board.processor.cores3.core.commitStats0.committedInstType::SimdReduceAlu            0      0.00%     50.80% # Class of committed instruction. (Count)
board.processor.cores3.core.commitStats0.committedInstType::SimdReduceCmp            0      0.00%     50.80% # Class of committed instruction. (Count)
board.processor.cores3.core.commitStats0.committedInstType::SimdFloatReduceAdd            0      0.00%     50.80% # Class of committed instruction. (Count)
board.processor.cores3.core.commitStats0.committedInstType::SimdFloatReduceCmp            0      0.00%     50.80% # Class of committed instruction. (Count)
board.processor.cores3.core.commitStats0.committedInstType::SimdAes            0      0.00%     50.80% # Class of committed instruction. (Count)
board.processor.cores3.core.commitStats0.committedInstType::SimdAesMix            0      0.00%     50.80% # Class of committed instruction. (Count)
board.processor.cores3.core.commitStats0.committedInstType::SimdSha1Hash            0      0.00%     50.80% # Class of committed instruction. (Count)
board.processor.cores3.core.commitStats0.committedInstType::SimdSha1Hash2            0      0.00%     50.80% # Class of committed instruction. (Count)
board.processor.cores3.core.commitStats0.committedInstType::SimdSha256Hash            0      0.00%     50.80% # Class of committed instruction. (Count)
board.processor.cores3.core.commitStats0.committedInstType::SimdSha256Hash2            0      0.00%     50.80% # Class of committed instruction. (Count)
board.processor.cores3.core.commitStats0.committedInstType::SimdShaSigma2            0      0.00%     50.80% # Class of committed instruction. (Count)
board.processor.cores3.core.commitStats0.committedInstType::SimdShaSigma3            0      0.00%     50.80% # Class of committed instruction. (Count)
board.processor.cores3.core.commitStats0.committedInstType::SimdSha3            0      0.00%     50.80% # Class of committed instruction. (Count)
board.processor.cores3.core.commitStats0.committedInstType::SimdSm4e            0      0.00%     50.80% # Class of committed instruction. (Count)
board.processor.cores3.core.commitStats0.committedInstType::SimdCrc            0      0.00%     50.80% # Class of committed instruction. (Count)
board.processor.cores3.core.commitStats0.committedInstType::SimdPredAlu            0      0.00%     50.80% # Class of committed instruction. (Count)
board.processor.cores3.core.commitStats0.committedInstType::SimdDotProd            0      0.00%     50.80% # Class of committed instruction. (Count)
board.processor.cores3.core.commitStats0.committedInstType::Matrix            0      0.00%     50.80% # Class of committed instruction. (Count)
board.processor.cores3.core.commitStats0.committedInstType::MatrixMov            0      0.00%     50.80% # Class of committed instruction. (Count)
board.processor.cores3.core.commitStats0.committedInstType::MatrixOP            0      0.00%     50.80% # Class of committed instruction. (Count)
board.processor.cores3.core.commitStats0.committedInstType::MemRead       696396     37.21%     88.01% # Class of committed instruction. (Count)
board.processor.cores3.core.commitStats0.committedInstType::MemWrite       103969      5.56%     93.57% # Class of committed instruction. (Count)
board.processor.cores3.core.commitStats0.committedInstType::FloatMemRead        87485      4.67%     98.24% # Class of committed instruction. (Count)
board.processor.cores3.core.commitStats0.committedInstType::FloatMemWrite        32925      1.76%    100.00% # Class of committed instruction. (Count)
board.processor.cores3.core.commitStats0.committedInstType::InstPrefetch            0      0.00%    100.00% # Class of committed instruction. (Count)
board.processor.cores3.core.commitStats0.committedInstType::SimdUnitStrideLoad            0      0.00%    100.00% # Class of committed instruction. (Count)
board.processor.cores3.core.commitStats0.committedInstType::SimdUnitStrideStore            0      0.00%    100.00% # Class of committed instruction. (Count)
board.processor.cores3.core.commitStats0.committedInstType::SimdUnitStrideMaskLoad            0      0.00%    100.00% # Class of committed instruction. (Count)
board.processor.cores3.core.commitStats0.committedInstType::SimdUnitStrideMaskStore            0      0.00%    100.00% # Class of committed instruction. (Count)
board.processor.cores3.core.commitStats0.committedInstType::SimdStridedLoad            0      0.00%    100.00% # Class of committed instruction. (Count)
board.processor.cores3.core.commitStats0.committedInstType::SimdStridedStore            0      0.00%    100.00% # Class of committed instruction. (Count)
board.processor.cores3.core.commitStats0.committedInstType::SimdIndexedLoad            0      0.00%    100.00% # Class of committed instruction. (Count)
board.processor.cores3.core.commitStats0.committedInstType::SimdIndexedStore            0      0.00%    100.00% # Class of committed instruction. (Count)
board.processor.cores3.core.commitStats0.committedInstType::SimdWholeRegisterLoad            0      0.00%    100.00% # Class of committed instruction. (Count)
board.processor.cores3.core.commitStats0.committedInstType::SimdWholeRegisterStore            0      0.00%    100.00% # Class of committed instruction. (Count)
board.processor.cores3.core.commitStats0.committedInstType::SimdUnitStrideFaultOnlyFirstLoad            0      0.00%    100.00% # Class of committed instruction. (Count)
board.processor.cores3.core.commitStats0.committedInstType::SimdUnitStrideSegmentedLoad            0      0.00%    100.00% # Class of committed instruction. (Count)
board.processor.cores3.core.commitStats0.committedInstType::SimdUnitStrideSegmentedStore            0      0.00%    100.00% # Class of committed instruction. (Count)
board.processor.cores3.core.commitStats0.committedInstType::SimdUnitStrideSegmentedFaultOnlyFirstLoad            0      0.00%    100.00% # Class of committed instruction. (Count)
board.processor.cores3.core.commitStats0.committedInstType::SimdStrideSegmentedLoad            0      0.00%    100.00% # Class of committed instruction. (Count)
board.processor.cores3.core.commitStats0.committedInstType::SimdStrideSegmentedStore            0      0.00%    100.00% # Class of committed instruction. (Count)
board.processor.cores3.core.commitStats0.committedInstType::SimdExt            0      0.00%    100.00% # Class of committed instruction. (Count)
board.processor.cores3.core.commitStats0.committedInstType::SimdFloatExt            0      0.00%    100.00% # Class of committed instruction. (Count)
board.processor.cores3.core.commitStats0.committedInstType::SimdConfig            0      0.00%    100.00% # Class of committed instruction. (Count)
board.processor.cores3.core.commitStats0.committedInstType::SimdBf16Add            0      0.00%    100.00% # Class of committed instruction. (Count)
board.processor.cores3.core.commitStats0.committedInstType::SimdBf16Cmp            0      0.00%    100.00% # Class of committed instruction. (Count)
board.processor.cores3.core.commitStats0.committedInstType::SimdBf16Cvt            0      0.00%    100.00% # Class of committed instruction. (Count)
board.processor.cores3.core.commitStats0.committedInstType::SimdBf16DotProd            0      0.00%    100.00% # Class of committed instruction. (Count)
board.processor.cores3.core.commitStats0.committedInstType::SimdBf16MatMultAcc            0      0.00%    100.00% # Class of committed instruction. (Count)
board.processor.cores3.core.commitStats0.committedInstType::SimdBf16Mult            0      0.00%    100.00% # Class of committed instruction. (Count)
board.processor.cores3.core.commitStats0.committedInstType::SimdBf16MultAcc            0      0.00%    100.00% # Class of committed instruction. (Count)
board.processor.cores3.core.commitStats0.committedInstType::Bf16Cvt            0      0.00%    100.00% # Class of committed instruction. (Count)
board.processor.cores3.core.commitStats0.committedInstType::System            0      0.00%    100.00% # Class of committed instruction. (Count)
board.processor.cores3.core.commitStats0.committedInstType::total      1871520                       # Class of committed instruction. (Count)
board.processor.cores3.core.commitStats0.committedControl::IsControl       186808                       # Class of control type instructions committed (Count)
board.processor.cores3.core.commitStats0.committedControl::IsDirectControl       155094                       # Class of control type instructions committed (Count)
board.processor.cores3.core.commitStats0.committedControl::IsIndirectControl        31714                       # Class of control type instructions committed (Count)
board.processor.cores3.core.commitStats0.committedControl::IsCondControl        95883                       # Class of control type instructions committed (Count)
board.processor.cores3.core.commitStats0.committedControl::IsUncondControl        90925                       # Class of control type instructions committed (Count)
board.processor.cores3.core.commitStats0.committedControl::IsCall        31513                       # Class of control type instructions committed (Count)
board.processor.cores3.core.commitStats0.committedControl::IsReturn        31513                       # Class of control type instructions committed (Count)
board.processor.cores3.core.commitStats0.functionCalls        31513                       # Number of function calls committed (Count)
board.processor.cores3.core.commitStats0.numCallsReturns        63026                       # Number of function calls and returns committed (Count)
board.processor.cores3.core.executeStats0.numInsts      1870716                       # Number of executed instructions (Count)
board.processor.cores3.core.executeStats0.numNop            0                       # Number of nop insts executed (Count)
board.processor.cores3.core.executeStats0.numBranches       186808                       # Number of branches executed (Count)
board.processor.cores3.core.executeStats0.numLoadInsts       783479                       # Number of load instructions executed (Count)
board.processor.cores3.core.executeStats0.numStoreInsts       137296                       # Number of stores executed (Count)
board.processor.cores3.core.executeStats0.instRate     0.580311                       # Inst execution rate ((Count/Cycle))
board.processor.cores3.core.executeStats0.numFpAluAccesses       182888                       # Number of float alu accesses (Count)
board.processor.cores3.core.executeStats0.numFpRegReads       149755                       # Number of times the floating registers were read (Count)
board.processor.cores3.core.executeStats0.numFpRegWrites       149755                       # Number of times the floating registers were written (Count)
board.processor.cores3.core.executeStats0.numIntAluAccesses      1790528                       # Number of integer alu accesses (Count)
board.processor.cores3.core.executeStats0.numIntRegReads      2037819                       # Number of times the integer registers were read (Count)
board.processor.cores3.core.executeStats0.numIntRegWrites      1397356                       # Number of times the integer registers were written (Count)
board.processor.cores3.core.executeStats0.numMemRefs       920775                       # Number of memory refs (Count)
board.processor.cores3.core.executeStats0.numVecAluAccesses            0                       # Number of vector alu accesses (Count)
board.processor.cores3.core.executeStats0.numDiscardedOps         6946                       # Number of ops (including micro ops) which were discarded before commit (Count)
board.processor.cores3.core.fetch2.totalInstructions      1917585                       # Total number of instructions successfully decoded (Count)
board.processor.cores3.core.fetch2.intInstructions       877830                       # Number of integer instructions successfully decoded (Count)
board.processor.cores3.core.fetch2.fpInstructions        65002                       # Number of floating point instructions successfully decoded (Count)
board.processor.cores3.core.fetch2.vecInstructions            0                       # Number of SIMD instructions successfully decoded (Count)
board.processor.cores3.core.fetch2.loadInstructions       805605                       # Number of memory load instructions successfully decoded (Count)
board.processor.cores3.core.fetch2.storeInstructions       139512                       # Number of memory store instructions successfully decoded (Count)
board.processor.cores3.core.fetch2.amoInstructions            0                       # Number of memory atomic instructions successfully decoded (Count)
board.processor.cores3.core.fetchStats0.numInsts      1917585                       # Number of instructions fetched (thread level) (Count)
board.processor.cores3.core.fetchStats0.numOps            0                       # Number of ops (including micro ops) fetched (thread level) (Count)
board.processor.cores3.core.fetchStats0.fetchRate     0.594850                       # Number of inst fetches per cycle ((Count/Cycle))
board.processor.cores3.core.fetchStats0.numBranches       188891                       # Number of branches fetched (Count)
board.processor.cores3.core.fetchStats0.branchRate     0.058596                       # Number of branch fetches per cycle (Ratio)
board.processor.cores3.core.fetchStats0.numFetchSuspends            0                       # Number of times Execute suspended instruction fetching (Count)
board.processor.cores3.core.mmu.dtb.readHits            0                       # read hits (Count)
board.processor.cores3.core.mmu.dtb.readMisses            0                       # read misses (Count)
board.processor.cores3.core.mmu.dtb.readAccesses            0                       # read accesses (Count)
board.processor.cores3.core.mmu.dtb.writeHits            0                       # write hits (Count)
board.processor.cores3.core.mmu.dtb.writeMisses            0                       # write misses (Count)
board.processor.cores3.core.mmu.dtb.writeAccesses            0                       # write accesses (Count)
board.processor.cores3.core.mmu.dtb.hits            0                       # Total TLB (read and write) hits (Count)
board.processor.cores3.core.mmu.dtb.misses            0                       # Total TLB (read and write) misses (Count)
board.processor.cores3.core.mmu.dtb.accesses            0                       # Total TLB (read and write) accesses (Count)
board.processor.cores3.core.mmu.dtb.walker.num_4kb_walks            0                       # Completed page walks with 4KB pages (Count)
board.processor.cores3.core.mmu.dtb.walker.num_64kb_walks            0                       # Completed page walks with 64KB pages (Count)
board.processor.cores3.core.mmu.dtb.walker.num_2mb_walks            0                       # Completed page walks with 2MB pages (Count)
board.processor.cores3.core.mmu.dtb.walker.power_state.pwrStateResidencyTicks::UNDEFINED   6359544090                       # Cumulative time (in ticks) in various power states (Tick)
board.processor.cores3.core.mmu.itb.readHits            0                       # read hits (Count)
board.processor.cores3.core.mmu.itb.readMisses            0                       # read misses (Count)
board.processor.cores3.core.mmu.itb.readAccesses            0                       # read accesses (Count)
board.processor.cores3.core.mmu.itb.writeHits            0                       # write hits (Count)
board.processor.cores3.core.mmu.itb.writeMisses            0                       # write misses (Count)
board.processor.cores3.core.mmu.itb.writeAccesses            0                       # write accesses (Count)
board.processor.cores3.core.mmu.itb.hits            0                       # Total TLB (read and write) hits (Count)
board.processor.cores3.core.mmu.itb.misses            0                       # Total TLB (read and write) misses (Count)
board.processor.cores3.core.mmu.itb.accesses            0                       # Total TLB (read and write) accesses (Count)
board.processor.cores3.core.mmu.itb.walker.num_4kb_walks            0                       # Completed page walks with 4KB pages (Count)
board.processor.cores3.core.mmu.itb.walker.num_64kb_walks            0                       # Completed page walks with 64KB pages (Count)
board.processor.cores3.core.mmu.itb.walker.num_2mb_walks            0                       # Completed page walks with 2MB pages (Count)
board.processor.cores3.core.mmu.itb.walker.power_state.pwrStateResidencyTicks::UNDEFINED   6359544090                       # Cumulative time (in ticks) in various power states (Tick)
board.processor.cores3.core.power_state.pwrStateResidencyTicks::ON   6359544090                       # Cumulative time (in ticks) in various power states (Tick)
board.processor.cores3.core.thread_0.numInsts      1870716                       # Number of Instructions committed (Count)
board.processor.cores3.core.thread_0.numOps      1871520                       # Number of Ops committed (Count)
board.processor.cores3.core.thread_0.numMemRefs       920775                       # Number of Memory References (Count)
board.workload.inst.arm                             0                       # number of arm instructions executed (Count)
board.workload.inst.quiesce                         0                       # number of quiesce instructions executed (Count)
board.processor.cores0.core.idleCycles         993734                       # Total number of cycles that the object has spent stopped (Unspecified)
board.processor.cores0.core.tickCycles        2229909                       # Number of cycles that the object actually ticked (Unspecified)
board.processor.cores1.core.idleCycles         948591                       # Total number of cycles that the object has spent stopped (Unspecified)
board.processor.cores1.core.tickCycles        2275052                       # Number of cycles that the object actually ticked (Unspecified)
board.processor.cores2.core.idleCycles         947105                       # Total number of cycles that the object has spent stopped (Unspecified)
board.processor.cores2.core.tickCycles        2276538                       # Number of cycles that the object actually ticked (Unspecified)
board.processor.cores3.core.idleCycles         923470                       # Total number of cycles that the object has spent stopped (Unspecified)
board.processor.cores3.core.tickCycles        2300173                       # Number of cycles that the object actually ticked (Unspecified)

---------- End Simulation Statistics   ----------
