
---------- Begin Simulation Statistics ----------
simSeconds                                   0.047217                       # Number of seconds simulated (Second)
simTicks                                  47216700369                       # Number of ticks simulated (Tick)
finalTick                                 47216700369                       # Number of ticks from beginning of simulation (restored from checkpoints and never reset) (Tick)
simFreq                                  1000000000000                       # The number of ticks per simulated second ((Tick/Second))
hostSeconds                                    402.23                       # Real time elapsed on the host (Second)
hostTickRate                                117388204                       # The number of ticks simulated per host second (ticks/s) ((Tick/Second))
hostMemory                                    2705364                       # Number of bytes of host memory used (Byte)
simInsts                                     62422710                       # Number of instructions simulated (Count)
simOps                                       62423084                       # Number of ops (including micro ops) simulated (Count)
hostInstRate                                   155193                       # Simulator instruction rate (inst/s) ((Count/Second))
hostOpRate                                     155194                       # Simulator op (including micro ops) rate (op/s) ((Count/Second))
board.cache_hierarchy.ruby_system.delayHistogram::bucket_size         2048                       # delay histogram for all message (Unspecified)
board.cache_hierarchy.ruby_system.delayHistogram::max_bucket        20479                       # delay histogram for all message (Unspecified)
board.cache_hierarchy.ruby_system.delayHistogram::samples      5328651                       # delay histogram for all message (Unspecified)
board.cache_hierarchy.ruby_system.delayHistogram::mean     1.175270                       # delay histogram for all message (Unspecified)
board.cache_hierarchy.ruby_system.delayHistogram::stdev     9.103661                       # delay histogram for all message (Unspecified)
board.cache_hierarchy.ruby_system.delayHistogram |     5328642    100.00%    100.00% |           3      0.00%    100.00% |           2      0.00%    100.00% |           2      0.00%    100.00% |           1      0.00%    100.00% |           1      0.00%    100.00% |           0      0.00%    100.00% |           0      0.00%    100.00% |           0      0.00%    100.00% |           0      0.00%    100.00% # delay histogram for all message (Unspecified)
board.cache_hierarchy.ruby_system.delayHistogram::total      5328651                       # delay histogram for all message (Unspecified)
board.cache_hierarchy.ruby_system.m_outstandReqHistSeqr::bucket_size            1                       (Unspecified)
board.cache_hierarchy.ruby_system.m_outstandReqHistSeqr::max_bucket            9                       (Unspecified)
board.cache_hierarchy.ruby_system.m_outstandReqHistSeqr::samples     49560312                       (Unspecified)
board.cache_hierarchy.ruby_system.m_outstandReqHistSeqr::mean     1.376565                       (Unspecified)
board.cache_hierarchy.ruby_system.m_outstandReqHistSeqr::gmean     1.284720                       (Unspecified)
board.cache_hierarchy.ruby_system.m_outstandReqHistSeqr::stdev     0.554598                       (Unspecified)
board.cache_hierarchy.ruby_system.m_outstandReqHistSeqr |           0      0.00%      0.00% |    32702008     65.98%     65.98% |    15053934     30.37%     96.36% |     1804370      3.64%    100.00% |           0      0.00%    100.00% |           0      0.00%    100.00% |           0      0.00%    100.00% |           0      0.00%    100.00% |           0      0.00%    100.00% |           0      0.00%    100.00% (Unspecified)
board.cache_hierarchy.ruby_system.m_outstandReqHistSeqr::total     49560312                       (Unspecified)
board.cache_hierarchy.ruby_system.m_latencyHistSeqr::bucket_size          256                       (Unspecified)
board.cache_hierarchy.ruby_system.m_latencyHistSeqr::max_bucket         2559                       (Unspecified)
board.cache_hierarchy.ruby_system.m_latencyHistSeqr::samples     49935325                       (Unspecified)
board.cache_hierarchy.ruby_system.m_latencyHistSeqr::mean     6.146763                       (Unspecified)
board.cache_hierarchy.ruby_system.m_latencyHistSeqr::gmean     1.097474                       (Unspecified)
board.cache_hierarchy.ruby_system.m_latencyHistSeqr::stdev    46.357399                       (Unspecified)
board.cache_hierarchy.ruby_system.m_latencyHistSeqr |    49526575     99.18%     99.18% |      304055      0.61%     99.79% |       89818      0.18%     99.97% |        6577      0.01%     99.98% |        5717      0.01%     99.99% |        2353      0.00%    100.00% |         227      0.00%    100.00% |           3      0.00%    100.00% |           0      0.00%    100.00% |           0      0.00%    100.00% (Unspecified)
board.cache_hierarchy.ruby_system.m_latencyHistSeqr::total     49935325                       (Unspecified)
board.cache_hierarchy.ruby_system.m_hitLatencyHistSeqr::bucket_size           64                       (Unspecified)
board.cache_hierarchy.ruby_system.m_hitLatencyHistSeqr::max_bucket          639                       (Unspecified)
board.cache_hierarchy.ruby_system.m_hitLatencyHistSeqr::samples     49168153                       (Unspecified)
board.cache_hierarchy.ruby_system.m_hitLatencyHistSeqr::mean     1.007910                       (Unspecified)
board.cache_hierarchy.ruby_system.m_hitLatencyHistSeqr::gmean     1.005309                       (Unspecified)
board.cache_hierarchy.ruby_system.m_hitLatencyHistSeqr::stdev     0.252768                       (Unspecified)
board.cache_hierarchy.ruby_system.m_hitLatencyHistSeqr |    49168062    100.00%    100.00% |          80      0.00%    100.00% |           0      0.00%    100.00% |           0      0.00%    100.00% |           0      0.00%    100.00% |           9      0.00%    100.00% |           0      0.00%    100.00% |           2      0.00%    100.00% |           0      0.00%    100.00% |           0      0.00%    100.00% (Unspecified)
board.cache_hierarchy.ruby_system.m_hitLatencyHistSeqr::total     49168153                       (Unspecified)
board.cache_hierarchy.ruby_system.m_missLatencyHistSeqr::bucket_size          256                       (Unspecified)
board.cache_hierarchy.ruby_system.m_missLatencyHistSeqr::max_bucket         2559                       (Unspecified)
board.cache_hierarchy.ruby_system.m_missLatencyHistSeqr::samples       767172                       (Unspecified)
board.cache_hierarchy.ruby_system.m_missLatencyHistSeqr::mean   335.496503                       (Unspecified)
board.cache_hierarchy.ruby_system.m_missLatencyHistSeqr::gmean   303.316654                       (Unspecified)
board.cache_hierarchy.ruby_system.m_missLatencyHistSeqr::stdev   172.370085                       (Unspecified)
board.cache_hierarchy.ruby_system.m_missLatencyHistSeqr |      358433     46.72%     46.72% |      304044     39.63%     86.35% |       89818     11.71%     98.06% |        6577      0.86%     98.92% |        5717      0.75%     99.66% |        2353      0.31%     99.97% |         227      0.03%    100.00% |           3      0.00%    100.00% |           0      0.00%    100.00% |           0      0.00%    100.00% (Unspecified)
board.cache_hierarchy.ruby_system.m_missLatencyHistSeqr::total       767172                       (Unspecified)
board.cache_hierarchy.ruby_system.delayVCHist.vnet_0::bucket_size         2048                       # delay histogram for vnet_0 (Unspecified)
board.cache_hierarchy.ruby_system.delayVCHist.vnet_0::max_bucket        20479                       # delay histogram for vnet_0 (Unspecified)
board.cache_hierarchy.ruby_system.delayVCHist.vnet_0::samples      1905269                       # delay histogram for vnet_0 (Unspecified)
board.cache_hierarchy.ruby_system.delayVCHist.vnet_0::mean     2.210892                       # delay histogram for vnet_0 (Unspecified)
board.cache_hierarchy.ruby_system.delayVCHist.vnet_0::stdev    14.928612                       # delay histogram for vnet_0 (Unspecified)
board.cache_hierarchy.ruby_system.delayVCHist.vnet_0 |     1905260    100.00%    100.00% |           3      0.00%    100.00% |           2      0.00%    100.00% |           2      0.00%    100.00% |           1      0.00%    100.00% |           1      0.00%    100.00% |           0      0.00%    100.00% |           0      0.00%    100.00% |           0      0.00%    100.00% |           0      0.00%    100.00% # delay histogram for vnet_0 (Unspecified)
board.cache_hierarchy.ruby_system.delayVCHist.vnet_0::total      1905269                       # delay histogram for vnet_0 (Unspecified)
board.cache_hierarchy.ruby_system.delayVCHist.vnet_1::bucket_size           16                       # delay histogram for vnet_1 (Unspecified)
board.cache_hierarchy.ruby_system.delayVCHist.vnet_1::max_bucket          159                       # delay histogram for vnet_1 (Unspecified)
board.cache_hierarchy.ruby_system.delayVCHist.vnet_1::samples      3042371                       # delay histogram for vnet_1 (Unspecified)
board.cache_hierarchy.ruby_system.delayVCHist.vnet_1::mean     0.670708                       # delay histogram for vnet_1 (Unspecified)
board.cache_hierarchy.ruby_system.delayVCHist.vnet_1::stdev     2.119269                       # delay histogram for vnet_1 (Unspecified)
board.cache_hierarchy.ruby_system.delayVCHist.vnet_1 |     3035416     99.77%     99.77% |        6740      0.22%     99.99% |         134      0.00%    100.00% |          42      0.00%    100.00% |          15      0.00%    100.00% |          10      0.00%    100.00% |          10      0.00%    100.00% |           4      0.00%    100.00% |           0      0.00%    100.00% |           0      0.00%    100.00% # delay histogram for vnet_1 (Unspecified)
board.cache_hierarchy.ruby_system.delayVCHist.vnet_1::total      3042371                       # delay histogram for vnet_1 (Unspecified)
board.cache_hierarchy.ruby_system.delayVCHist.vnet_2::bucket_size            1                       # delay histogram for vnet_2 (Unspecified)
board.cache_hierarchy.ruby_system.delayVCHist.vnet_2::max_bucket            9                       # delay histogram for vnet_2 (Unspecified)
board.cache_hierarchy.ruby_system.delayVCHist.vnet_2::samples       381011                       # delay histogram for vnet_2 (Unspecified)
board.cache_hierarchy.ruby_system.delayVCHist.vnet_2::mean     0.025511                       # delay histogram for vnet_2 (Unspecified)
board.cache_hierarchy.ruby_system.delayVCHist.vnet_2::stdev     0.230118                       # delay histogram for vnet_2 (Unspecified)
board.cache_hierarchy.ruby_system.delayVCHist.vnet_2 |      376274     98.76%     98.76% |           0      0.00%     98.76% |        4614      1.21%     99.97% |           0      0.00%     99.97% |         123      0.03%    100.00% |           0      0.00%    100.00% |           0      0.00%    100.00% |           0      0.00%    100.00% |           0      0.00%    100.00% |           0      0.00%    100.00% # delay histogram for vnet_2 (Unspecified)
board.cache_hierarchy.ruby_system.delayVCHist.vnet_2::total       381011                       # delay histogram for vnet_2 (Unspecified)
board.cache_hierarchy.ruby_system.Directory_Controller.Fetch       758416      0.00%      0.00% (Unspecified)
board.cache_hierarchy.ruby_system.Directory_Controller.Data       501593      0.00%      0.00% (Unspecified)
board.cache_hierarchy.ruby_system.Directory_Controller.Memory_Data       758416      0.00%      0.00% (Unspecified)
board.cache_hierarchy.ruby_system.Directory_Controller.Memory_Ack       501593      0.00%      0.00% (Unspecified)
board.cache_hierarchy.ruby_system.Directory_Controller.CleanReplacement       252727      0.00%      0.00% (Unspecified)
board.cache_hierarchy.ruby_system.Directory_Controller.I.Fetch       758416      0.00%      0.00% (Unspecified)
board.cache_hierarchy.ruby_system.Directory_Controller.M.Data       501593      0.00%      0.00% (Unspecified)
board.cache_hierarchy.ruby_system.Directory_Controller.M.CleanReplacement       252727      0.00%      0.00% (Unspecified)
board.cache_hierarchy.ruby_system.Directory_Controller.IM.Memory_Data       758416      0.00%      0.00% (Unspecified)
board.cache_hierarchy.ruby_system.Directory_Controller.MI.Memory_Ack       501593      0.00%      0.00% (Unspecified)
board.cache_hierarchy.ruby_system.L1Cache_Controller.Load |    15636989     63.30%     63.30% |      620605      2.51%     65.81% |      612222      2.48%     68.29% |      612845      2.48%     70.77% |      611977      2.48%     73.24% |      615602      2.49%     75.73% |      619609      2.51%     78.24% |      606164      2.45%     80.70% |      605259      2.45%     83.15% |      603027      2.44%     85.59% |      597282      2.42%     88.01% |      602435      2.44%     90.44% |      593328      2.40%     92.85% |      590353      2.39%     95.23% |      585394      2.37%     97.60% |      591802      2.40%    100.00% (Unspecified)
board.cache_hierarchy.ruby_system.L1Cache_Controller.Load::total     24704893                       (Unspecified)
board.cache_hierarchy.ruby_system.L1Cache_Controller.Ifetch |    12445705     71.33%     71.33% |      365655      2.10%     73.42% |      348937      2.00%     75.42% |      350113      2.01%     77.43% |      348400      2.00%     79.43% |      355654      2.04%     81.47% |      363688      2.08%     83.55% |      336818      1.93%     85.48% |      334978      1.92%     87.40% |      330534      1.89%     89.30% |      319023      1.83%     91.12% |      329317      1.89%     93.01% |      311088      1.78%     94.79% |      305154      1.75%     96.54% |      295197      1.69%     98.23% |      308012      1.77%    100.00% (Unspecified)
board.cache_hierarchy.ruby_system.L1Cache_Controller.Ifetch::total     17448273                       (Unspecified)
board.cache_hierarchy.ruby_system.L1Cache_Controller.Store |     5771250     74.16%     74.16% |      140482      1.81%     75.97% |      137139      1.76%     77.73% |      137374      1.77%     79.49% |      137028      1.76%     81.25% |      138485      1.78%     83.03% |      140091      1.80%     84.83% |      134714      1.73%     86.57% |      134348      1.73%     88.29% |      133458      1.71%     90.01% |      131153      1.69%     91.69% |      133214      1.71%     93.40% |      129573      1.67%     95.07% |      128380      1.65%     96.72% |      126395      1.62%     98.34% |      128949      1.66%    100.00% (Unspecified)
board.cache_hierarchy.ruby_system.L1Cache_Controller.Store::total      7782033                       (Unspecified)
board.cache_hierarchy.ruby_system.L1Cache_Controller.Inv |       25579      6.72%      6.72% |       23794      6.25%     12.97% |       23674      6.22%     19.19% |       23607      6.20%     25.39% |       23671      6.22%     31.60% |       23815      6.25%     37.86% |       23858      6.27%     44.12% |       23757      6.24%     50.36% |       23699      6.22%     56.59% |       23632      6.21%     62.79% |       23626      6.21%     69.00% |       23818      6.26%     75.26% |       23563      6.19%     81.44% |       23496      6.17%     87.62% |       23483      6.17%     93.78% |       23670      6.22%    100.00% (Unspecified)
board.cache_hierarchy.ruby_system.L1Cache_Controller.Inv::total       380742                       (Unspecified)
board.cache_hierarchy.ruby_system.L1Cache_Controller.L1_Replacement |      400905     53.74%     53.74% |       23004      3.08%     56.83% |       23001      3.08%     59.91% |       23004      3.08%     63.00% |       23001      3.08%     66.08% |       23004      3.08%     69.16% |       23001      3.08%     72.25% |       23004      3.08%     75.33% |       23001      3.08%     78.41% |       23004      3.08%     81.50% |       23001      3.08%     84.58% |       23004      3.08%     87.67% |       23001      3.08%     90.75% |       23004      3.08%     93.83% |       23003      3.08%     96.92% |       23002      3.08%    100.00% (Unspecified)
board.cache_hierarchy.ruby_system.L1Cache_Controller.L1_Replacement::total       745944                       (Unspecified)
board.cache_hierarchy.ruby_system.L1Cache_Controller.Fwd_GETX |          65     49.24%     49.24% |           4      3.03%     52.27% |           5      3.79%     56.06% |           5      3.79%     59.85% |           5      3.79%     63.64% |           4      3.03%     66.67% |           5      3.79%     70.45% |           4      3.03%     73.48% |           5      3.79%     77.27% |           5      3.79%     81.06% |           5      3.79%     84.85% |           5      3.79%     88.64% |           5      3.79%     92.42% |           4      3.03%     95.45% |           4      3.03%     98.48% |           2      1.52%    100.00% (Unspecified)
board.cache_hierarchy.ruby_system.L1Cache_Controller.Fwd_GETX::total          132                       (Unspecified)
board.cache_hierarchy.ruby_system.L1Cache_Controller.Fwd_GETS |         124     90.51%     90.51% |           9      6.57%     97.08% |           0      0.00%     97.08% |           0      0.00%     97.08% |           0      0.00%     97.08% |           0      0.00%     97.08% |           0      0.00%     97.08% |           0      0.00%     97.08% |           0      0.00%     97.08% |           0      0.00%     97.08% |           0      0.00%     97.08% |           0      0.00%     97.08% |           0      0.00%     97.08% |           0      0.00%     97.08% |           3      2.19%     99.27% |           1      0.73%    100.00% (Unspecified)
board.cache_hierarchy.ruby_system.L1Cache_Controller.Fwd_GETS::total          137                       (Unspecified)
board.cache_hierarchy.ruby_system.L1Cache_Controller.Data_Exclusive |       17532      6.87%      6.87% |       15846      6.21%     13.08% |       15808      6.19%     19.27% |       15812      6.20%     25.47% |       15806      6.19%     31.66% |       15834      6.20%     37.87% |       15873      6.22%     44.09% |       15872      6.22%     50.31% |       15835      6.20%     56.51% |       15834      6.20%     62.72% |       15866      6.22%     68.93% |       15869      6.22%     75.15% |       15833      6.20%     81.36% |       15837      6.21%     87.56% |       15869      6.22%     93.78% |       15873      6.22%    100.00% (Unspecified)
board.cache_hierarchy.ruby_system.L1Cache_Controller.Data_Exclusive::total       255199                       (Unspecified)
board.cache_hierarchy.ruby_system.L1Cache_Controller.DataS_fromL1 |           1      0.73%      0.73% |          13      9.49%     10.22% |          17     12.41%     22.63% |          13      9.49%     32.12% |           7      5.11%     37.23% |           7      5.11%     42.34% |          11      8.03%     50.36% |           9      6.57%     56.93% |           7      5.11%     62.04% |           7      5.11%     67.15% |           7      5.11%     72.26% |           7      5.11%     77.37% |           7      5.11%     82.48% |           9      6.57%     89.05% |           8      5.84%     94.89% |           7      5.11%    100.00% (Unspecified)
board.cache_hierarchy.ruby_system.L1Cache_Controller.DataS_fromL1::total          137                       (Unspecified)
board.cache_hierarchy.ruby_system.L1Cache_Controller.Data_all_Acks |      385590     75.34%     75.34% |        8398      1.64%     76.98% |        8403      1.64%     78.63% |        8409      1.64%     80.27% |        8417      1.64%     81.91% |        8418      1.64%     83.56% |        8404      1.64%     85.20% |        8414      1.64%     86.84% |        8414      1.64%     88.49% |        8419      1.65%     90.13% |        8417      1.64%     91.78% |        8417      1.64%     93.42% |        8416      1.64%     95.07% |        8413      1.64%     96.71% |        8420      1.65%     98.36% |        8414      1.64%    100.00% (Unspecified)
board.cache_hierarchy.ruby_system.L1Cache_Controller.Data_all_Acks::total       511783                       (Unspecified)
board.cache_hierarchy.ruby_system.L1Cache_Controller.Ack |          15     20.00%     20.00% |           2      2.67%     22.67% |           2      2.67%     25.33% |           2      2.67%     28.00% |           2      2.67%     30.67% |           2      2.67%     33.33% |           2      2.67%     36.00% |           2      2.67%     38.67% |           2      2.67%     41.33% |           2      2.67%     44.00% |           2      2.67%     46.67% |           2      2.67%     49.33% |           2      2.67%     52.00% |           2      2.67%     54.67% |          17     22.67%     77.33% |          17     22.67%    100.00% (Unspecified)
board.cache_hierarchy.ruby_system.L1Cache_Controller.Ack::total           75                       (Unspecified)
board.cache_hierarchy.ruby_system.L1Cache_Controller.Ack_all |          15     31.91%     31.91% |           2      4.26%     36.17% |           2      4.26%     40.43% |           2      4.26%     44.68% |           2      4.26%     48.94% |           2      4.26%     53.19% |           2      4.26%     57.45% |           2      4.26%     61.70% |           2      4.26%     65.96% |           2      4.26%     70.21% |           2      4.26%     74.47% |           2      4.26%     78.72% |           2      4.26%     82.98% |           2      4.26%     87.23% |           3      6.38%     93.62% |           3      6.38%    100.00% (Unspecified)
board.cache_hierarchy.ruby_system.L1Cache_Controller.Ack_all::total           47                       (Unspecified)
board.cache_hierarchy.ruby_system.L1Cache_Controller.WB_Ack |      376896     98.77%     98.77% |         344      0.09%     98.86% |         336      0.09%     98.95% |         376      0.10%     99.05% |         295      0.08%     99.13% |         301      0.08%     99.20% |         320      0.08%     99.29% |         285      0.07%     99.36% |         313      0.08%     99.44% |         324      0.08%     99.53% |         294      0.08%     99.61% |         264      0.07%     99.68% |         285      0.07%     99.75% |         331      0.09%     99.84% |         322      0.08%     99.92% |         298      0.08%    100.00% (Unspecified)
board.cache_hierarchy.ruby_system.L1Cache_Controller.WB_Ack::total       381584                       (Unspecified)
board.cache_hierarchy.ruby_system.L1Cache_Controller.Load_Linked |         128    100.00%    100.00% |           0      0.00%    100.00% |           0      0.00%    100.00% |           0      0.00%    100.00% |           0      0.00%    100.00% |           0      0.00%    100.00% |           0      0.00%    100.00% |           0      0.00%    100.00% |           0      0.00%    100.00% |           0      0.00%    100.00% |           0      0.00%    100.00% |           0      0.00%    100.00% |           0      0.00%    100.00% |           0      0.00%    100.00% |           0      0.00%    100.00% |           0      0.00%    100.00% (Unspecified)
board.cache_hierarchy.ruby_system.L1Cache_Controller.Load_Linked::total          128                       (Unspecified)
board.cache_hierarchy.ruby_system.L1Cache_Controller.LLSC_Data_all_Acks |           6    100.00%    100.00% |           0      0.00%    100.00% |           0      0.00%    100.00% |           0      0.00%    100.00% |           0      0.00%    100.00% |           0      0.00%    100.00% |           0      0.00%    100.00% |           0      0.00%    100.00% |           0      0.00%    100.00% |           0      0.00%    100.00% |           0      0.00%    100.00% |           0      0.00%    100.00% |           0      0.00%    100.00% |           0      0.00%    100.00% |           0      0.00%    100.00% |           0      0.00%    100.00% (Unspecified)
board.cache_hierarchy.ruby_system.L1Cache_Controller.LLSC_Data_all_Acks::total            6                       (Unspecified)
board.cache_hierarchy.ruby_system.L1Cache_Controller.LLSC_Timeout |         128    100.00%    100.00% |           0      0.00%    100.00% |           0      0.00%    100.00% |           0      0.00%    100.00% |           0      0.00%    100.00% |           0      0.00%    100.00% |           0      0.00%    100.00% |           0      0.00%    100.00% |           0      0.00%    100.00% |           0      0.00%    100.00% |           0      0.00%    100.00% |           0      0.00%    100.00% |           0      0.00%    100.00% |           0      0.00%    100.00% |           0      0.00%    100.00% |           0      0.00%    100.00% (Unspecified)
board.cache_hierarchy.ruby_system.L1Cache_Controller.LLSC_Timeout::total          128                       (Unspecified)
board.cache_hierarchy.ruby_system.L1Cache_Controller.NP.Load |       17262      6.84%      6.84% |       15671      6.21%     13.05% |       15669      6.21%     19.26% |       15671      6.21%     25.47% |       15669      6.21%     31.68% |       15671      6.21%     37.89% |       15669      6.21%     44.10% |       15671      6.21%     50.32% |       15669      6.21%     56.53% |       15671      6.21%     62.74% |       15669      6.21%     68.95% |       15671      6.21%     75.16% |       15669      6.21%     81.37% |       15671      6.21%     87.58% |       15671      6.21%     93.79% |       15669      6.21%    100.00% (Unspecified)
board.cache_hierarchy.ruby_system.L1Cache_Controller.NP.Load::total       252313                       (Unspecified)
board.cache_hierarchy.ruby_system.L1Cache_Controller.NP.Ifetch |        1264     36.16%     36.16% |         149      4.26%     40.42% |         148      4.23%     44.65% |         148      4.23%     48.88% |         148      4.23%     53.12% |         148      4.23%     57.35% |         148      4.23%     61.58% |         148      4.23%     65.82% |         148      4.23%     70.05% |         148      4.23%     74.28% |         148      4.23%     78.52% |         148      4.23%     82.75% |         148      4.23%     86.99% |         148      4.23%     91.22% |         154      4.41%     95.62% |         153      4.38%    100.00% (Unspecified)
board.cache_hierarchy.ruby_system.L1Cache_Controller.NP.Ifetch::total         3496                       (Unspecified)
board.cache_hierarchy.ruby_system.L1Cache_Controller.NP.Store |      383396     76.52%     76.52% |        7845      1.57%     78.08% |        7844      1.57%     79.65% |        7845      1.57%     81.21% |        7844      1.57%     82.78% |        7845      1.57%     84.34% |        7844      1.57%     85.91% |        7845      1.57%     87.48% |        7844      1.57%     89.04% |        7845      1.57%     90.61% |        7844      1.57%     92.17% |        7845      1.57%     93.74% |        7844      1.57%     95.30% |        7845      1.57%     96.87% |        7844      1.57%     98.43% |        7845      1.57%    100.00% (Unspecified)
board.cache_hierarchy.ruby_system.L1Cache_Controller.NP.Store::total       501064                       (Unspecified)
board.cache_hierarchy.ruby_system.L1Cache_Controller.NP.Inv |         197     96.57%     96.57% |           0      0.00%     96.57% |           1      0.49%     97.06% |           2      0.98%     98.04% |           2      0.98%     99.02% |           1      0.49%     99.51% |           0      0.00%     99.51% |           0      0.00%     99.51% |           0      0.00%     99.51% |           0      0.00%     99.51% |           0      0.00%     99.51% |           0      0.00%     99.51% |           0      0.00%     99.51% |           0      0.00%     99.51% |           0      0.00%     99.51% |           1      0.49%    100.00% (Unspecified)
board.cache_hierarchy.ruby_system.L1Cache_Controller.NP.Inv::total          204                       (Unspecified)
board.cache_hierarchy.ruby_system.L1Cache_Controller.NP.Load_Linked |           6    100.00%    100.00% |           0      0.00%    100.00% |           0      0.00%    100.00% |           0      0.00%    100.00% |           0      0.00%    100.00% |           0      0.00%    100.00% |           0      0.00%    100.00% |           0      0.00%    100.00% |           0      0.00%    100.00% |           0      0.00%    100.00% |           0      0.00%    100.00% |           0      0.00%    100.00% |           0      0.00%    100.00% |           0      0.00%    100.00% |           0      0.00%    100.00% |           0      0.00%    100.00% (Unspecified)
board.cache_hierarchy.ruby_system.L1Cache_Controller.NP.Load_Linked::total            6                       (Unspecified)
board.cache_hierarchy.ruby_system.L1Cache_Controller.I.Load |         275      7.84%      7.84% |         208      5.93%     13.78% |         181      5.16%     18.94% |         183      5.22%     24.16% |         179      5.11%     29.26% |         205      5.85%     35.11% |         246      7.02%     42.13% |         243      6.93%     49.06% |         208      5.93%     54.99% |         205      5.85%     60.84% |         239      6.82%     67.66% |         240      6.85%     74.50% |         206      5.88%     80.38% |         208      5.93%     86.31% |         238      6.79%     93.10% |         242      6.90%    100.00% (Unspecified)
board.cache_hierarchy.ruby_system.L1Cache_Controller.I.Load::total         3506                       (Unspecified)
board.cache_hierarchy.ruby_system.L1Cache_Controller.I.Ifetch |         920     13.77%     13.77% |         379      5.67%     19.44% |         383      5.73%     25.18% |         384      5.75%     30.92% |         385      5.76%     36.69% |         385      5.76%     42.45% |         381      5.70%     48.15% |         385      5.76%     53.91% |         385      5.76%     59.68% |         385      5.76%     65.44% |         385      5.76%     71.20% |         385      5.76%     76.96% |         385      5.76%     82.73% |         385      5.76%     88.49% |         385      5.76%     94.25% |         384      5.75%    100.00% (Unspecified)
board.cache_hierarchy.ruby_system.L1Cache_Controller.I.Ifetch::total         6681                       (Unspecified)
board.cache_hierarchy.ruby_system.L1Cache_Controller.I.Store |           7     11.67%     11.67% |           5      8.33%     20.00% |           3      5.00%     25.00% |           3      5.00%     30.00% |           5      8.33%     38.33% |           5      8.33%     46.67% |           0      0.00%     46.67% |           3      5.00%     51.67% |           2      3.33%     55.00% |           6     10.00%     65.00% |           5      8.33%     73.33% |           4      6.67%     80.00% |           4      6.67%     86.67% |           2      3.33%     90.00% |           5      8.33%     98.33% |           1      1.67%    100.00% (Unspecified)
board.cache_hierarchy.ruby_system.L1Cache_Controller.I.Store::total           60                       (Unspecified)
board.cache_hierarchy.ruby_system.L1Cache_Controller.I.L1_Replacement |       23728      6.52%      6.52% |       22660      6.22%     12.74% |       22664      6.23%     18.97% |       22626      6.21%     25.18% |       22704      6.24%     31.42% |       22702      6.24%     37.65% |       22681      6.23%     43.88% |       22719      6.24%     50.12% |       22688      6.23%     56.35% |       22680      6.23%     62.58% |       22707      6.24%     68.82% |       22740      6.25%     75.07% |       22716      6.24%     81.31% |       22673      6.23%     87.53% |       22681      6.23%     93.76% |       22703      6.24%    100.00% (Unspecified)
board.cache_hierarchy.ruby_system.L1Cache_Controller.I.L1_Replacement::total       364072                       (Unspecified)
board.cache_hierarchy.ruby_system.L1Cache_Controller.S.Load |        5655      4.31%      4.31% |       11567      8.82%     13.13% |        9912      7.56%     20.69% |       10029      7.65%     28.34% |        9858      7.52%     35.85% |       10582      8.07%     43.92% |       11386      8.68%     52.60% |        8698      6.63%     59.23% |        8515      6.49%     65.73% |        8071      6.15%     71.88% |        6919      5.28%     77.16% |        7949      6.06%     83.22% |        6126      4.67%     87.89% |        5533      4.22%     92.11% |        4536      3.46%     95.56% |        5818      4.44%    100.00% (Unspecified)
board.cache_hierarchy.ruby_system.L1Cache_Controller.S.Load::total       131154                       (Unspecified)
board.cache_hierarchy.ruby_system.L1Cache_Controller.S.Ifetch |    12443520     71.36%     71.36% |      365127      2.09%     73.45% |      348406      2.00%     75.45% |      349581      2.00%     77.45% |      347867      1.99%     79.45% |      355121      2.04%     81.49% |      363159      2.08%     83.57% |      336285      1.93%     85.50% |      334445      1.92%     87.42% |      330001      1.89%     89.31% |      318490      1.83%     91.13% |      328784      1.89%     93.02% |      310555      1.78%     94.80% |      304621      1.75%     96.55% |      294658      1.69%     98.24% |      307475      1.76%    100.00% (Unspecified)
board.cache_hierarchy.ruby_system.L1Cache_Controller.S.Ifetch::total     17438095                       (Unspecified)
board.cache_hierarchy.ruby_system.L1Cache_Controller.S.Store |          15     31.91%     31.91% |           2      4.26%     36.17% |           2      4.26%     40.43% |           2      4.26%     44.68% |           2      4.26%     48.94% |           2      4.26%     53.19% |           2      4.26%     57.45% |           2      4.26%     61.70% |           2      4.26%     65.96% |           2      4.26%     70.21% |           2      4.26%     74.47% |           2      4.26%     78.72% |           2      4.26%     82.98% |           2      4.26%     87.23% |           3      6.38%     93.62% |           3      6.38%    100.00% (Unspecified)
board.cache_hierarchy.ruby_system.L1Cache_Controller.S.Store::total           47                       (Unspecified)
board.cache_hierarchy.ruby_system.L1Cache_Controller.S.Inv |        1648     17.17%     17.17% |         529      5.51%     22.68% |         528      5.50%     28.18% |         528      5.50%     33.68% |         529      5.51%     39.19% |         530      5.52%     44.71% |         531      5.53%     50.24% |         531      5.53%     55.78% |         531      5.53%     61.31% |         531      5.53%     66.84% |         531      5.53%     72.37% |         531      5.53%     77.90% |         531      5.53%     83.44% |         531      5.53%     88.97% |         530      5.52%     94.49% |         529      5.51%    100.00% (Unspecified)
board.cache_hierarchy.ruby_system.L1Cache_Controller.S.Inv::total         9599                       (Unspecified)
board.cache_hierarchy.ruby_system.L1Cache_Controller.S.L1_Replacement |         281     97.57%     97.57% |           0      0.00%     97.57% |           1      0.35%     97.92% |           2      0.69%     98.61% |           2      0.69%     99.31% |           1      0.35%     99.65% |           0      0.00%     99.65% |           0      0.00%     99.65% |           0      0.00%     99.65% |           0      0.00%     99.65% |           0      0.00%     99.65% |           0      0.00%     99.65% |           0      0.00%     99.65% |           0      0.00%     99.65% |           0      0.00%     99.65% |           1      0.35%    100.00% (Unspecified)
board.cache_hierarchy.ruby_system.L1Cache_Controller.S.L1_Replacement::total          288                       (Unspecified)
board.cache_hierarchy.ruby_system.L1Cache_Controller.E.Load |     3074229     40.96%     40.96% |      295481      3.94%     44.90% |      295156      3.93%     48.83% |      295661      3.94%     52.77% |      295767      3.94%     56.71% |      295408      3.94%     60.65% |      295213      3.93%     64.58% |      295259      3.93%     68.52% |      295018      3.93%     72.45% |      295863      3.94%     76.39% |      295202      3.93%     80.33% |      295320      3.94%     84.26% |      295001      3.93%     88.19% |      295560      3.94%     92.13% |      295240      3.93%     96.06% |      295375      3.94%    100.00% (Unspecified)
board.cache_hierarchy.ruby_system.L1Cache_Controller.E.Load::total      7504753                       (Unspecified)
board.cache_hierarchy.ruby_system.L1Cache_Controller.E.Store |         246     13.38%     13.38% |         103      5.60%     18.98% |          89      4.84%     23.82% |          90      4.89%     28.71% |          87      4.73%     33.44% |         101      5.49%     38.93% |         123      6.69%     45.62% |         121      6.58%     52.20% |         103      5.60%     57.80% |          99      5.38%     63.19% |         117      6.36%     69.55% |         118      6.42%     75.97% |         101      5.49%     81.46% |         103      5.60%     87.06% |         117      6.36%     93.42% |         121      6.58%    100.00% (Unspecified)
board.cache_hierarchy.ruby_system.L1Cache_Controller.E.Store::total         1839                       (Unspecified)
board.cache_hierarchy.ruby_system.L1Cache_Controller.E.Inv |       15512      6.34%      6.34% |       15347      6.27%     12.62% |       15272      6.24%     18.86% |       15202      6.21%     25.07% |       15279      6.25%     31.32% |       15369      6.28%     37.60% |       15376      6.29%     43.89% |       15315      6.26%     50.15% |       15275      6.24%     56.40% |       15248      6.23%     62.63% |       15246      6.23%     68.86% |       15377      6.29%     75.15% |       15218      6.22%     81.37% |       15156      6.20%     87.57% |       15157      6.20%     93.76% |       15253      6.24%    100.00% (Unspecified)
board.cache_hierarchy.ruby_system.L1Cache_Controller.E.Inv::total       244602                       (Unspecified)
board.cache_hierarchy.ruby_system.L1Cache_Controller.E.L1_Replacement |        1686     26.51%     26.51% |         344      5.41%     31.92% |         334      5.25%     37.18% |         373      5.87%     43.04% |         295      4.64%     47.68% |         300      4.72%     52.40% |         318      5.00%     57.40% |         283      4.45%     61.85% |         313      4.92%     66.77% |         324      5.10%     71.87% |         293      4.61%     76.47% |         262      4.12%     80.59% |         285      4.48%     85.08% |         329      5.17%     90.25% |         322      5.06%     95.31% |         298      4.69%    100.00% (Unspecified)
board.cache_hierarchy.ruby_system.L1Cache_Controller.E.L1_Replacement::total         6359                       (Unspecified)
board.cache_hierarchy.ruby_system.L1Cache_Controller.E.Fwd_GETS |          11     52.38%     52.38% |           9     42.86%     95.24% |           0      0.00%     95.24% |           0      0.00%     95.24% |           0      0.00%     95.24% |           0      0.00%     95.24% |           0      0.00%     95.24% |           0      0.00%     95.24% |           0      0.00%     95.24% |           0      0.00%     95.24% |           0      0.00%     95.24% |           0      0.00%     95.24% |           0      0.00%     95.24% |           0      0.00%     95.24% |           1      4.76%    100.00% |           0      0.00%    100.00% (Unspecified)
board.cache_hierarchy.ruby_system.L1Cache_Controller.E.Fwd_GETS::total           21                       (Unspecified)
board.cache_hierarchy.ruby_system.L1Cache_Controller.E.Load_Linked |           9    100.00%    100.00% |           0      0.00%    100.00% |           0      0.00%    100.00% |           0      0.00%    100.00% |           0      0.00%    100.00% |           0      0.00%    100.00% |           0      0.00%    100.00% |           0      0.00%    100.00% |           0      0.00%    100.00% |           0      0.00%    100.00% |           0      0.00%    100.00% |           0      0.00%    100.00% |           0      0.00%    100.00% |           0      0.00%    100.00% |           0      0.00%    100.00% |           0      0.00%    100.00% (Unspecified)
board.cache_hierarchy.ruby_system.L1Cache_Controller.E.Load_Linked::total            9                       (Unspecified)
board.cache_hierarchy.ruby_system.L1Cache_Controller.M.Load |    12539546     74.58%     74.58% |      297678      1.77%     76.35% |      291304      1.73%     78.08% |      291301      1.73%     79.82% |      290504      1.73%     81.55% |      293736      1.75%     83.29% |      297095      1.77%     85.06% |      286293      1.70%     86.76% |      285849      1.70%     88.46% |      283217      1.68%     90.15% |      279253      1.66%     91.81% |      283255      1.68%     93.49% |      276326      1.64%     95.14% |      273381      1.63%     96.76% |      269709      1.60%     98.37% |      274698      1.63%    100.00% (Unspecified)
board.cache_hierarchy.ruby_system.L1Cache_Controller.M.Load::total     16813145                       (Unspecified)
board.cache_hierarchy.ruby_system.L1Cache_Controller.M.Store |     5387448     74.01%     74.01% |      132527      1.82%     75.84% |      129201      1.78%     77.61% |      129434      1.78%     79.39% |      129090      1.77%     81.16% |      130532      1.79%     82.96% |      132122      1.82%     84.77% |      126743      1.74%     86.51% |      126397      1.74%     88.25% |      125506      1.72%     89.97% |      123185      1.69%     91.66% |      125245      1.72%     93.39% |      121622      1.67%     95.06% |      120428      1.65%     96.71% |      118426      1.63%     98.34% |      120979      1.66%    100.00% (Unspecified)
board.cache_hierarchy.ruby_system.L1Cache_Controller.M.Store::total      7278885                       (Unspecified)
board.cache_hierarchy.ruby_system.L1Cache_Controller.M.Inv |        8222      6.51%      6.51% |        7918      6.27%     12.78% |        7872      6.23%     19.01% |        7874      6.23%     25.24% |        7861      6.22%     31.46% |        7915      6.27%     37.73% |        7951      6.29%     44.02% |        7910      6.26%     50.28% |        7893      6.25%     56.53% |        7853      6.22%     62.75% |        7848      6.21%     68.96% |        7910      6.26%     75.22% |        7813      6.18%     81.41% |        7805      6.18%     87.59% |        7796      6.17%     93.76% |        7887      6.24%    100.00% (Unspecified)
board.cache_hierarchy.ruby_system.L1Cache_Controller.M.Inv::total       126328                       (Unspecified)
board.cache_hierarchy.ruby_system.L1Cache_Controller.M.L1_Replacement |      375210    100.00%    100.00% |           0      0.00%    100.00% |           2      0.00%    100.00% |           3      0.00%    100.00% |           0      0.00%    100.00% |           1      0.00%    100.00% |           2      0.00%    100.00% |           2      0.00%    100.00% |           0      0.00%    100.00% |           0      0.00%    100.00% |           1      0.00%    100.00% |           2      0.00%    100.00% |           0      0.00%    100.00% |           2      0.00%    100.00% |           0      0.00%    100.00% |           0      0.00%    100.00% (Unspecified)
board.cache_hierarchy.ruby_system.L1Cache_Controller.M.L1_Replacement::total       375225                       (Unspecified)
board.cache_hierarchy.ruby_system.L1Cache_Controller.M.Fwd_GETX |          65     49.24%     49.24% |           4      3.03%     52.27% |           5      3.79%     56.06% |           5      3.79%     59.85% |           5      3.79%     63.64% |           4      3.03%     66.67% |           5      3.79%     70.45% |           4      3.03%     73.48% |           5      3.79%     77.27% |           5      3.79%     81.06% |           5      3.79%     84.85% |           5      3.79%     88.64% |           5      3.79%     92.42% |           4      3.03%     95.45% |           4      3.03%     98.48% |           2      1.52%    100.00% (Unspecified)
board.cache_hierarchy.ruby_system.L1Cache_Controller.M.Fwd_GETX::total          132                       (Unspecified)
board.cache_hierarchy.ruby_system.L1Cache_Controller.M.Fwd_GETS |         113     97.41%     97.41% |           0      0.00%     97.41% |           0      0.00%     97.41% |           0      0.00%     97.41% |           0      0.00%     97.41% |           0      0.00%     97.41% |           0      0.00%     97.41% |           0      0.00%     97.41% |           0      0.00%     97.41% |           0      0.00%     97.41% |           0      0.00%     97.41% |           0      0.00%     97.41% |           0      0.00%     97.41% |           0      0.00%     97.41% |           2      1.72%     99.14% |           1      0.86%    100.00% (Unspecified)
board.cache_hierarchy.ruby_system.L1Cache_Controller.M.Fwd_GETS::total          116                       (Unspecified)
board.cache_hierarchy.ruby_system.L1Cache_Controller.M.Load_Linked |         113    100.00%    100.00% |           0      0.00%    100.00% |           0      0.00%    100.00% |           0      0.00%    100.00% |           0      0.00%    100.00% |           0      0.00%    100.00% |           0      0.00%    100.00% |           0      0.00%    100.00% |           0      0.00%    100.00% |           0      0.00%    100.00% |           0      0.00%    100.00% |           0      0.00%    100.00% |           0      0.00%    100.00% |           0      0.00%    100.00% |           0      0.00%    100.00% |           0      0.00%    100.00% (Unspecified)
board.cache_hierarchy.ruby_system.L1Cache_Controller.M.Load_Linked::total          113                       (Unspecified)
board.cache_hierarchy.ruby_system.L1Cache_Controller.IS.Data_Exclusive |       17532      6.87%      6.87% |       15846      6.21%     13.08% |       15808      6.19%     19.27% |       15812      6.20%     25.47% |       15806      6.19%     31.66% |       15834      6.20%     37.87% |       15873      6.22%     44.09% |       15872      6.22%     50.31% |       15835      6.20%     56.51% |       15834      6.20%     62.72% |       15866      6.22%     68.93% |       15869      6.22%     75.15% |       15833      6.20%     81.36% |       15837      6.21%     87.56% |       15869      6.22%     93.78% |       15873      6.22%    100.00% (Unspecified)
board.cache_hierarchy.ruby_system.L1Cache_Controller.IS.Data_Exclusive::total       255199                       (Unspecified)
board.cache_hierarchy.ruby_system.L1Cache_Controller.IS.DataS_fromL1 |           1      0.73%      0.73% |          13      9.49%     10.22% |          17     12.41%     22.63% |          13      9.49%     32.12% |           7      5.11%     37.23% |           7      5.11%     42.34% |          11      8.03%     50.36% |           9      6.57%     56.93% |           7      5.11%     62.04% |           7      5.11%     67.15% |           7      5.11%     72.26% |           7      5.11%     77.37% |           7      5.11%     82.48% |           9      6.57%     89.05% |           8      5.84%     94.89% |           7      5.11%    100.00% (Unspecified)
board.cache_hierarchy.ruby_system.L1Cache_Controller.IS.DataS_fromL1::total          137                       (Unspecified)
board.cache_hierarchy.ruby_system.L1Cache_Controller.IS.Data_all_Acks |        2187     20.52%     20.52% |         548      5.14%     25.66% |         556      5.22%     30.88% |         561      5.26%     36.14% |         568      5.33%     41.47% |         568      5.33%     46.80% |         560      5.25%     52.05% |         566      5.31%     57.36% |         568      5.33%     62.69% |         568      5.33%     68.02% |         568      5.33%     73.35% |         568      5.33%     78.68% |         568      5.33%     84.00% |         566      5.31%     89.31% |         571      5.36%     94.67% |         568      5.33%    100.00% (Unspecified)
board.cache_hierarchy.ruby_system.L1Cache_Controller.IS.Data_all_Acks::total        10659                       (Unspecified)
board.cache_hierarchy.ruby_system.L1Cache_Controller.IM.Data_all_Acks |      383403     76.51%     76.51% |        7850      1.57%     78.08% |        7847      1.57%     79.64% |        7848      1.57%     81.21% |        7849      1.57%     82.77% |        7850      1.57%     84.34% |        7844      1.57%     85.91% |        7848      1.57%     87.47% |        7846      1.57%     89.04% |        7851      1.57%     90.60% |        7849      1.57%     92.17% |        7849      1.57%     93.74% |        7848      1.57%     95.30% |        7847      1.57%     96.87% |        7849      1.57%     98.43% |        7846      1.57%    100.00% (Unspecified)
board.cache_hierarchy.ruby_system.L1Cache_Controller.IM.Data_all_Acks::total       501124                       (Unspecified)
board.cache_hierarchy.ruby_system.L1Cache_Controller.IM.LLSC_Data_all_Acks |           6    100.00%    100.00% |           0      0.00%    100.00% |           0      0.00%    100.00% |           0      0.00%    100.00% |           0      0.00%    100.00% |           0      0.00%    100.00% |           0      0.00%    100.00% |           0      0.00%    100.00% |           0      0.00%    100.00% |           0      0.00%    100.00% |           0      0.00%    100.00% |           0      0.00%    100.00% |           0      0.00%    100.00% |           0      0.00%    100.00% |           0      0.00%    100.00% |           0      0.00%    100.00% (Unspecified)
board.cache_hierarchy.ruby_system.L1Cache_Controller.IM.LLSC_Data_all_Acks::total            6                       (Unspecified)
board.cache_hierarchy.ruby_system.L1Cache_Controller.SM.Ack |          15     20.00%     20.00% |           2      2.67%     22.67% |           2      2.67%     25.33% |           2      2.67%     28.00% |           2      2.67%     30.67% |           2      2.67%     33.33% |           2      2.67%     36.00% |           2      2.67%     38.67% |           2      2.67%     41.33% |           2      2.67%     44.00% |           2      2.67%     46.67% |           2      2.67%     49.33% |           2      2.67%     52.00% |           2      2.67%     54.67% |          17     22.67%     77.33% |          17     22.67%    100.00% (Unspecified)
board.cache_hierarchy.ruby_system.L1Cache_Controller.SM.Ack::total           75                       (Unspecified)
board.cache_hierarchy.ruby_system.L1Cache_Controller.SM.Ack_all |          15     31.91%     31.91% |           2      4.26%     36.17% |           2      4.26%     40.43% |           2      4.26%     44.68% |           2      4.26%     48.94% |           2      4.26%     53.19% |           2      4.26%     57.45% |           2      4.26%     61.70% |           2      4.26%     65.96% |           2      4.26%     70.21% |           2      4.26%     74.47% |           2      4.26%     78.72% |           2      4.26%     82.98% |           2      4.26%     87.23% |           3      6.38%     93.62% |           3      6.38%    100.00% (Unspecified)
board.cache_hierarchy.ruby_system.L1Cache_Controller.SM.Ack_all::total           47                       (Unspecified)
board.cache_hierarchy.ruby_system.L1Cache_Controller.M_I.Ifetch |           1    100.00%    100.00% |           0      0.00%    100.00% |           0      0.00%    100.00% |           0      0.00%    100.00% |           0      0.00%    100.00% |           0      0.00%    100.00% |           0      0.00%    100.00% |           0      0.00%    100.00% |           0      0.00%    100.00% |           0      0.00%    100.00% |           0      0.00%    100.00% |           0      0.00%    100.00% |           0      0.00%    100.00% |           0      0.00%    100.00% |           0      0.00%    100.00% |           0      0.00%    100.00% (Unspecified)
board.cache_hierarchy.ruby_system.L1Cache_Controller.M_I.Ifetch::total            1                       (Unspecified)
board.cache_hierarchy.ruby_system.L1Cache_Controller.M_I.Inv |           0      0.00%      0.00% |           0      0.00%      0.00% |           1     11.11%     11.11% |           1     11.11%     22.22% |           0      0.00%     22.22% |           0      0.00%     22.22% |           0      0.00%     22.22% |           1     11.11%     33.33% |           0      0.00%     33.33% |           0      0.00%     33.33% |           1     11.11%     44.44% |           0      0.00%     44.44% |           1     11.11%     55.56% |           4     44.44%    100.00% |           0      0.00%    100.00% |           0      0.00%    100.00% (Unspecified)
board.cache_hierarchy.ruby_system.L1Cache_Controller.M_I.Inv::total            9                       (Unspecified)
board.cache_hierarchy.ruby_system.L1Cache_Controller.M_I.WB_Ack |      376896     98.77%     98.77% |         344      0.09%     98.86% |         335      0.09%     98.95% |         375      0.10%     99.05% |         295      0.08%     99.13% |         301      0.08%     99.21% |         320      0.08%     99.29% |         284      0.07%     99.36% |         313      0.08%     99.45% |         324      0.08%     99.53% |         293      0.08%     99.61% |         264      0.07%     99.68% |         284      0.07%     99.75% |         327      0.09%     99.84% |         322      0.08%     99.92% |         298      0.08%    100.00% (Unspecified)
board.cache_hierarchy.ruby_system.L1Cache_Controller.M_I.WB_Ack::total       381575                       (Unspecified)
board.cache_hierarchy.ruby_system.L1Cache_Controller.SINK_WB_ACK.WB_Ack |           0      0.00%      0.00% |           0      0.00%      0.00% |           1     11.11%     11.11% |           1     11.11%     22.22% |           0      0.00%     22.22% |           0      0.00%     22.22% |           0      0.00%     22.22% |           1     11.11%     33.33% |           0      0.00%     33.33% |           0      0.00%     33.33% |           1     11.11%     44.44% |           0      0.00%     44.44% |           1     11.11%     55.56% |           4     44.44%    100.00% |           0      0.00%    100.00% |           0      0.00%    100.00% (Unspecified)
board.cache_hierarchy.ruby_system.L1Cache_Controller.SINK_WB_ACK.WB_Ack::total            9                       (Unspecified)
board.cache_hierarchy.ruby_system.L1Cache_Controller.LLSC_E.Store |          15    100.00%    100.00% |           0      0.00%    100.00% |           0      0.00%    100.00% |           0      0.00%    100.00% |           0      0.00%    100.00% |           0      0.00%    100.00% |           0      0.00%    100.00% |           0      0.00%    100.00% |           0      0.00%    100.00% |           0      0.00%    100.00% |           0      0.00%    100.00% |           0      0.00%    100.00% |           0      0.00%    100.00% |           0      0.00%    100.00% |           0      0.00%    100.00% |           0      0.00%    100.00% (Unspecified)
board.cache_hierarchy.ruby_system.L1Cache_Controller.LLSC_E.Store::total           15                       (Unspecified)
board.cache_hierarchy.ruby_system.L1Cache_Controller.LLSC_M.Load |          22    100.00%    100.00% |           0      0.00%    100.00% |           0      0.00%    100.00% |           0      0.00%    100.00% |           0      0.00%    100.00% |           0      0.00%    100.00% |           0      0.00%    100.00% |           0      0.00%    100.00% |           0      0.00%    100.00% |           0      0.00%    100.00% |           0      0.00%    100.00% |           0      0.00%    100.00% |           0      0.00%    100.00% |           0      0.00%    100.00% |           0      0.00%    100.00% |           0      0.00%    100.00% (Unspecified)
board.cache_hierarchy.ruby_system.L1Cache_Controller.LLSC_M.Load::total           22                       (Unspecified)
board.cache_hierarchy.ruby_system.L1Cache_Controller.LLSC_M.Store |         123    100.00%    100.00% |           0      0.00%    100.00% |           0      0.00%    100.00% |           0      0.00%    100.00% |           0      0.00%    100.00% |           0      0.00%    100.00% |           0      0.00%    100.00% |           0      0.00%    100.00% |           0      0.00%    100.00% |           0      0.00%    100.00% |           0      0.00%    100.00% |           0      0.00%    100.00% |           0      0.00%    100.00% |           0      0.00%    100.00% |           0      0.00%    100.00% |           0      0.00%    100.00% (Unspecified)
board.cache_hierarchy.ruby_system.L1Cache_Controller.LLSC_M.Store::total          123                       (Unspecified)
board.cache_hierarchy.ruby_system.L1Cache_Controller.LLSC_M.LLSC_Timeout |         128    100.00%    100.00% |           0      0.00%    100.00% |           0      0.00%    100.00% |           0      0.00%    100.00% |           0      0.00%    100.00% |           0      0.00%    100.00% |           0      0.00%    100.00% |           0      0.00%    100.00% |           0      0.00%    100.00% |           0      0.00%    100.00% |           0      0.00%    100.00% |           0      0.00%    100.00% |           0      0.00%    100.00% |           0      0.00%    100.00% |           0      0.00%    100.00% |           0      0.00%    100.00% (Unspecified)
board.cache_hierarchy.ruby_system.L1Cache_Controller.LLSC_M.LLSC_Timeout::total          128                       (Unspecified)
board.cache_hierarchy.ruby_system.L2Cache_Controller.L1_GET_INSTR        11049      0.00%      0.00% (Unspecified)
board.cache_hierarchy.ruby_system.L2Cache_Controller.L1_GETS       256801      0.00%      0.00% (Unspecified)
board.cache_hierarchy.ruby_system.L2Cache_Controller.L1_GETX       501298      0.00%      0.00% (Unspecified)
board.cache_hierarchy.ruby_system.L2Cache_Controller.L1_UPGRADE           47      0.00%      0.00% (Unspecified)
board.cache_hierarchy.ruby_system.L2Cache_Controller.L1_PUTX       381575      0.00%      0.00% (Unspecified)
board.cache_hierarchy.ruby_system.L2Cache_Controller.L1_PUTX_old           18      0.00%      0.00% (Unspecified)
board.cache_hierarchy.ruby_system.L2Cache_Controller.L2_Replacement       375316      0.00%      0.00% (Unspecified)
board.cache_hierarchy.ruby_system.L2Cache_Controller.L2_Replacement_clean       379004      0.00%      0.00% (Unspecified)
board.cache_hierarchy.ruby_system.L2Cache_Controller.Mem_Data       758416      0.00%      0.00% (Unspecified)
board.cache_hierarchy.ruby_system.L2Cache_Controller.Mem_Ack       754320      0.00%      0.00% (Unspecified)
board.cache_hierarchy.ruby_system.L2Cache_Controller.WB_Data       126444      0.00%      0.00% (Unspecified)
board.cache_hierarchy.ruby_system.L2Cache_Controller.WB_Data_clean           30      0.00%      0.00% (Unspecified)
board.cache_hierarchy.ruby_system.L2Cache_Controller.Ack         7812      0.00%      0.00% (Unspecified)
board.cache_hierarchy.ruby_system.L2Cache_Controller.Ack_all       246518      0.00%      0.00% (Unspecified)
board.cache_hierarchy.ruby_system.L2Cache_Controller.Unblock          137      0.00%      0.00% (Unspecified)
board.cache_hierarchy.ruby_system.L2Cache_Controller.Exclusive_Unblock       756376      0.00%      0.00% (Unspecified)
board.cache_hierarchy.ruby_system.L2Cache_Controller.NP.L1_GET_INSTR         2271      0.00%      0.00% (Unspecified)
board.cache_hierarchy.ruby_system.L2Cache_Controller.NP.L1_GETS       255168      0.00%      0.00% (Unspecified)
board.cache_hierarchy.ruby_system.L2Cache_Controller.NP.L1_GETX       500977      0.00%      0.00% (Unspecified)
board.cache_hierarchy.ruby_system.L2Cache_Controller.NP.L1_PUTX_old            9      0.00%      0.00% (Unspecified)
board.cache_hierarchy.ruby_system.L2Cache_Controller.SS.L1_GET_INSTR         3636      0.00%      0.00% (Unspecified)
board.cache_hierarchy.ruby_system.L2Cache_Controller.SS.L1_GETS          460      0.00%      0.00% (Unspecified)
board.cache_hierarchy.ruby_system.L2Cache_Controller.SS.L1_UPGRADE           47      0.00%      0.00% (Unspecified)
board.cache_hierarchy.ruby_system.L2Cache_Controller.SS.L2_Replacement           69      0.00%      0.00% (Unspecified)
board.cache_hierarchy.ruby_system.L2Cache_Controller.SS.L2_Replacement_clean         1847      0.00%      0.00% (Unspecified)
board.cache_hierarchy.ruby_system.L2Cache_Controller.M.L1_GET_INSTR            1      0.00%      0.00% (Unspecified)
board.cache_hierarchy.ruby_system.L2Cache_Controller.M.L1_GETS           35      0.00%      0.00% (Unspecified)
board.cache_hierarchy.ruby_system.L2Cache_Controller.M.L1_GETX           21      0.00%      0.00% (Unspecified)
board.cache_hierarchy.ruby_system.L2Cache_Controller.M.L2_Replacement       375195      0.00%      0.00% (Unspecified)
board.cache_hierarchy.ruby_system.L2Cache_Controller.M.L2_Replacement_clean         6270      0.00%      0.00% (Unspecified)
board.cache_hierarchy.ruby_system.L2Cache_Controller.MT.L1_GETS          137      0.00%      0.00% (Unspecified)
board.cache_hierarchy.ruby_system.L2Cache_Controller.MT.L1_GETX          132      0.00%      0.00% (Unspecified)
board.cache_hierarchy.ruby_system.L2Cache_Controller.MT.L1_PUTX       381575      0.00%      0.00% (Unspecified)
board.cache_hierarchy.ruby_system.L2Cache_Controller.MT.L2_Replacement           52      0.00%      0.00% (Unspecified)
board.cache_hierarchy.ruby_system.L2Cache_Controller.MT.L2_Replacement_clean       370887      0.00%      0.00% (Unspecified)
board.cache_hierarchy.ruby_system.L2Cache_Controller.M_I.L1_GET_INSTR          871      0.00%      0.00% (Unspecified)
board.cache_hierarchy.ruby_system.L2Cache_Controller.M_I.L1_GETS          893      0.00%      0.00% (Unspecified)
board.cache_hierarchy.ruby_system.L2Cache_Controller.M_I.L1_GETX           56      0.00%      0.00% (Unspecified)
board.cache_hierarchy.ruby_system.L2Cache_Controller.M_I.Mem_Ack       754320      0.00%      0.00% (Unspecified)
board.cache_hierarchy.ruby_system.L2Cache_Controller.MT_I.WB_Data           51      0.00%      0.00% (Unspecified)
board.cache_hierarchy.ruby_system.L2Cache_Controller.MT_I.Ack_all            1      0.00%      0.00% (Unspecified)
board.cache_hierarchy.ruby_system.L2Cache_Controller.MCT_I.L1_PUTX_old            9      0.00%      0.00% (Unspecified)
board.cache_hierarchy.ruby_system.L2Cache_Controller.MCT_I.WB_Data       126277      0.00%      0.00% (Unspecified)
board.cache_hierarchy.ruby_system.L2Cache_Controller.MCT_I.WB_Data_clean            9      0.00%      0.00% (Unspecified)
board.cache_hierarchy.ruby_system.L2Cache_Controller.MCT_I.Ack_all       244601      0.00%      0.00% (Unspecified)
board.cache_hierarchy.ruby_system.L2Cache_Controller.I_I.L1_GET_INSTR            2      0.00%      0.00% (Unspecified)
board.cache_hierarchy.ruby_system.L2Cache_Controller.I_I.Ack         7618      0.00%      0.00% (Unspecified)
board.cache_hierarchy.ruby_system.L2Cache_Controller.I_I.Ack_all         1847      0.00%      0.00% (Unspecified)
board.cache_hierarchy.ruby_system.L2Cache_Controller.S_I.Ack          194      0.00%      0.00% (Unspecified)
board.cache_hierarchy.ruby_system.L2Cache_Controller.S_I.Ack_all           69      0.00%      0.00% (Unspecified)
board.cache_hierarchy.ruby_system.L2Cache_Controller.ISS.L1_GETS            4      0.00%      0.00% (Unspecified)
board.cache_hierarchy.ruby_system.L2Cache_Controller.ISS.Mem_Data       255164      0.00%      0.00% (Unspecified)
board.cache_hierarchy.ruby_system.L2Cache_Controller.IS.L1_GET_INSTR         4268      0.00%      0.00% (Unspecified)
board.cache_hierarchy.ruby_system.L2Cache_Controller.IS.L1_GETS           15      0.00%      0.00% (Unspecified)
board.cache_hierarchy.ruby_system.L2Cache_Controller.IS.Mem_Data         2275      0.00%      0.00% (Unspecified)
board.cache_hierarchy.ruby_system.L2Cache_Controller.IM.L1_GETX           14      0.00%      0.00% (Unspecified)
board.cache_hierarchy.ruby_system.L2Cache_Controller.IM.Mem_Data       500977      0.00%      0.00% (Unspecified)
board.cache_hierarchy.ruby_system.L2Cache_Controller.SS_MB.L1_GETS           17      0.00%      0.00% (Unspecified)
board.cache_hierarchy.ruby_system.L2Cache_Controller.SS_MB.Exclusive_Unblock           47      0.00%      0.00% (Unspecified)
board.cache_hierarchy.ruby_system.L2Cache_Controller.MT_MB.L1_GETS           12      0.00%      0.00% (Unspecified)
board.cache_hierarchy.ruby_system.L2Cache_Controller.MT_MB.L1_GETX           98      0.00%      0.00% (Unspecified)
board.cache_hierarchy.ruby_system.L2Cache_Controller.MT_MB.Exclusive_Unblock       756329      0.00%      0.00% (Unspecified)
board.cache_hierarchy.ruby_system.L2Cache_Controller.MT_IIB.L1_GETS           58      0.00%      0.00% (Unspecified)
board.cache_hierarchy.ruby_system.L2Cache_Controller.MT_IIB.WB_Data            3      0.00%      0.00% (Unspecified)
board.cache_hierarchy.ruby_system.L2Cache_Controller.MT_IIB.WB_Data_clean            1      0.00%      0.00% (Unspecified)
board.cache_hierarchy.ruby_system.L2Cache_Controller.MT_IIB.Unblock          133      0.00%      0.00% (Unspecified)
board.cache_hierarchy.ruby_system.L2Cache_Controller.MT_IB.L1_GETS            1      0.00%      0.00% (Unspecified)
board.cache_hierarchy.ruby_system.L2Cache_Controller.MT_IB.WB_Data          113      0.00%      0.00% (Unspecified)
board.cache_hierarchy.ruby_system.L2Cache_Controller.MT_IB.WB_Data_clean           20      0.00%      0.00% (Unspecified)
board.cache_hierarchy.ruby_system.L2Cache_Controller.MT_SB.L1_GETS            1      0.00%      0.00% (Unspecified)
board.cache_hierarchy.ruby_system.L2Cache_Controller.MT_SB.Unblock            4      0.00%      0.00% (Unspecified)
board.cache_hierarchy.ruby_system.RequestType.LD.latency_hist_seqr::bucket_size          256                       (Unspecified)
board.cache_hierarchy.ruby_system.RequestType.LD.latency_hist_seqr::max_bucket         2559                       (Unspecified)
board.cache_hierarchy.ruby_system.RequestType.LD.latency_hist_seqr::samples     24704893                       (Unspecified)
board.cache_hierarchy.ruby_system.RequestType.LD.latency_hist_seqr::mean     5.390788                       (Unspecified)
board.cache_hierarchy.ruby_system.RequestType.LD.latency_hist_seqr::gmean     1.064057                       (Unspecified)
board.cache_hierarchy.ruby_system.RequestType.LD.latency_hist_seqr::stdev    46.038863                       (Unspecified)
board.cache_hierarchy.ruby_system.RequestType.LD.latency_hist_seqr |    24453080     98.98%     98.98% |      198508      0.80%     99.78% |       46662      0.19%     99.97% |        1877      0.01%     99.98% |        2981      0.01%     99.99% |        1674      0.01%    100.00% |         109      0.00%    100.00% |           2      0.00%    100.00% |           0      0.00%    100.00% |           0      0.00%    100.00% (Unspecified)
board.cache_hierarchy.ruby_system.RequestType.LD.latency_hist_seqr::total     24704893                       (Unspecified)
board.cache_hierarchy.ruby_system.RequestType.LD.hit_latency_hist_seqr::bucket_size            1                       (Unspecified)
board.cache_hierarchy.ruby_system.RequestType.LD.hit_latency_hist_seqr::max_bucket            9                       (Unspecified)
board.cache_hierarchy.ruby_system.RequestType.LD.hit_latency_hist_seqr::samples     24449074                       (Unspecified)
board.cache_hierarchy.ruby_system.RequestType.LD.hit_latency_hist_seqr::mean            1                       (Unspecified)
board.cache_hierarchy.ruby_system.RequestType.LD.hit_latency_hist_seqr::gmean            1                       (Unspecified)
board.cache_hierarchy.ruby_system.RequestType.LD.hit_latency_hist_seqr |           0      0.00%      0.00% |    24449074    100.00%    100.00% |           0      0.00%    100.00% |           0      0.00%    100.00% |           0      0.00%    100.00% |           0      0.00%    100.00% |           0      0.00%    100.00% |           0      0.00%    100.00% |           0      0.00%    100.00% |           0      0.00%    100.00% (Unspecified)
board.cache_hierarchy.ruby_system.RequestType.LD.hit_latency_hist_seqr::total     24449074                       (Unspecified)
board.cache_hierarchy.ruby_system.RequestType.LD.miss_latency_hist_seqr::bucket_size          256                       (Unspecified)
board.cache_hierarchy.ruby_system.RequestType.LD.miss_latency_hist_seqr::max_bucket         2559                       (Unspecified)
board.cache_hierarchy.ruby_system.RequestType.LD.miss_latency_hist_seqr::samples       255819                       (Unspecified)
board.cache_hierarchy.ruby_system.RequestType.LD.miss_latency_hist_seqr::mean   425.026186                       (Unspecified)
board.cache_hierarchy.ruby_system.RequestType.LD.miss_latency_hist_seqr::gmean   401.817234                       (Unspecified)
board.cache_hierarchy.ruby_system.RequestType.LD.miss_latency_hist_seqr::stdev   163.569518                       (Unspecified)
board.cache_hierarchy.ruby_system.RequestType.LD.miss_latency_hist_seqr |        4006      1.57%      1.57% |      198508     77.60%     79.16% |       46662     18.24%     97.40% |        1877      0.73%     98.14% |        2981      1.17%     99.30% |        1674      0.65%     99.96% |         109      0.04%    100.00% |           2      0.00%    100.00% |           0      0.00%    100.00% |           0      0.00%    100.00% (Unspecified)
board.cache_hierarchy.ruby_system.RequestType.LD.miss_latency_hist_seqr::total       255819                       (Unspecified)
board.cache_hierarchy.ruby_system.RequestType.ST.latency_hist_seqr::bucket_size          256                       (Unspecified)
board.cache_hierarchy.ruby_system.RequestType.ST.latency_hist_seqr::max_bucket         2559                       (Unspecified)
board.cache_hierarchy.ruby_system.RequestType.ST.latency_hist_seqr::samples      7781905                       (Unspecified)
board.cache_hierarchy.ruby_system.RequestType.ST.latency_hist_seqr::mean    19.814525                       (Unspecified)
board.cache_hierarchy.ruby_system.RequestType.ST.latency_hist_seqr::gmean     1.481826                       (Unspecified)
board.cache_hierarchy.ruby_system.RequestType.ST.latency_hist_seqr::stdev    81.920488                       (Unspecified)
board.cache_hierarchy.ruby_system.RequestType.ST.latency_hist_seqr |     7628019     98.02%     98.02% |      103195      1.33%     99.35% |       42591      0.55%     99.90% |        4655      0.06%     99.96% |        2680      0.03%     99.99% |         646      0.01%    100.00% |         118      0.00%    100.00% |           1      0.00%    100.00% |           0      0.00%    100.00% |           0      0.00%    100.00% (Unspecified)
board.cache_hierarchy.ruby_system.RequestType.ST.latency_hist_seqr::total      7781905                       (Unspecified)
board.cache_hierarchy.ruby_system.RequestType.ST.hit_latency_hist_seqr::bucket_size           64                       (Unspecified)
board.cache_hierarchy.ruby_system.RequestType.ST.hit_latency_hist_seqr::max_bucket          639                       (Unspecified)
board.cache_hierarchy.ruby_system.RequestType.ST.hit_latency_hist_seqr::samples      7280734                       (Unspecified)
board.cache_hierarchy.ruby_system.RequestType.ST.hit_latency_hist_seqr::mean     1.053417                       (Unspecified)
board.cache_hierarchy.ruby_system.RequestType.ST.hit_latency_hist_seqr::gmean     1.036403                       (Unspecified)
board.cache_hierarchy.ruby_system.RequestType.ST.hit_latency_hist_seqr::stdev     0.655013                       (Unspecified)
board.cache_hierarchy.ruby_system.RequestType.ST.hit_latency_hist_seqr |     7280643    100.00%    100.00% |          80      0.00%    100.00% |           0      0.00%    100.00% |           0      0.00%    100.00% |           0      0.00%    100.00% |           9      0.00%    100.00% |           0      0.00%    100.00% |           2      0.00%    100.00% |           0      0.00%    100.00% |           0      0.00%    100.00% (Unspecified)
board.cache_hierarchy.ruby_system.RequestType.ST.hit_latency_hist_seqr::total      7280734                       (Unspecified)
board.cache_hierarchy.ruby_system.RequestType.ST.miss_latency_hist_seqr::bucket_size          256                       (Unspecified)
board.cache_hierarchy.ruby_system.RequestType.ST.miss_latency_hist_seqr::max_bucket         2559                       (Unspecified)
board.cache_hierarchy.ruby_system.RequestType.ST.miss_latency_hist_seqr::samples       501171                       (Unspecified)
board.cache_hierarchy.ruby_system.RequestType.ST.miss_latency_hist_seqr::mean   292.365478                       (Unspecified)
board.cache_hierarchy.ruby_system.RequestType.ST.miss_latency_hist_seqr::gmean   266.963473                       (Unspecified)
board.cache_hierarchy.ruby_system.RequestType.ST.miss_latency_hist_seqr::stdev   157.482004                       (Unspecified)
board.cache_hierarchy.ruby_system.RequestType.ST.miss_latency_hist_seqr |      347296     69.30%     69.30% |      103184     20.59%     89.89% |       42591      8.50%     98.38% |        4655      0.93%     99.31% |        2680      0.53%     99.85% |         646      0.13%     99.98% |         118      0.02%    100.00% |           1      0.00%    100.00% |           0      0.00%    100.00% |           0      0.00%    100.00% (Unspecified)
board.cache_hierarchy.ruby_system.RequestType.ST.miss_latency_hist_seqr::total       501171                       (Unspecified)
board.cache_hierarchy.ruby_system.RequestType.IFETCH.latency_hist_seqr::bucket_size          256                       (Unspecified)
board.cache_hierarchy.ruby_system.RequestType.IFETCH.latency_hist_seqr::max_bucket         2559                       (Unspecified)
board.cache_hierarchy.ruby_system.RequestType.IFETCH.latency_hist_seqr::samples     17448271                       (Unspecified)
board.cache_hierarchy.ruby_system.RequestType.IFETCH.latency_hist_seqr::mean     1.121323                       (Unspecified)
board.cache_hierarchy.ruby_system.RequestType.IFETCH.latency_hist_seqr::gmean     1.002881                       (Unspecified)
board.cache_hierarchy.ruby_system.RequestType.IFETCH.latency_hist_seqr::stdev     6.832164                       (Unspecified)
board.cache_hierarchy.ruby_system.RequestType.IFETCH.latency_hist_seqr |    17445222     99.98%     99.98% |        2350      0.01%    100.00% |         565      0.00%    100.00% |          45      0.00%    100.00% |          56      0.00%    100.00% |          33      0.00%    100.00% |           0      0.00%    100.00% |           0      0.00%    100.00% |           0      0.00%    100.00% |           0      0.00%    100.00% (Unspecified)
board.cache_hierarchy.ruby_system.RequestType.IFETCH.latency_hist_seqr::total     17448271                       (Unspecified)
board.cache_hierarchy.ruby_system.RequestType.IFETCH.hit_latency_hist_seqr::bucket_size            1                       (Unspecified)
board.cache_hierarchy.ruby_system.RequestType.IFETCH.hit_latency_hist_seqr::max_bucket            9                       (Unspecified)
board.cache_hierarchy.ruby_system.RequestType.IFETCH.hit_latency_hist_seqr::samples     17438095                       (Unspecified)
board.cache_hierarchy.ruby_system.RequestType.IFETCH.hit_latency_hist_seqr::mean     1.000000                       (Unspecified)
board.cache_hierarchy.ruby_system.RequestType.IFETCH.hit_latency_hist_seqr::gmean     1.000000                       (Unspecified)
board.cache_hierarchy.ruby_system.RequestType.IFETCH.hit_latency_hist_seqr::stdev     0.000239                       (Unspecified)
board.cache_hierarchy.ruby_system.RequestType.IFETCH.hit_latency_hist_seqr |           0      0.00%      0.00% |    17438094    100.00%    100.00% |           1      0.00%    100.00% |           0      0.00%    100.00% |           0      0.00%    100.00% |           0      0.00%    100.00% |           0      0.00%    100.00% |           0      0.00%    100.00% |           0      0.00%    100.00% |           0      0.00%    100.00% (Unspecified)
board.cache_hierarchy.ruby_system.RequestType.IFETCH.hit_latency_hist_seqr::total     17438095                       (Unspecified)
board.cache_hierarchy.ruby_system.RequestType.IFETCH.miss_latency_hist_seqr::bucket_size          256                       (Unspecified)
board.cache_hierarchy.ruby_system.RequestType.IFETCH.miss_latency_hist_seqr::max_bucket         2559                       (Unspecified)
board.cache_hierarchy.ruby_system.RequestType.IFETCH.miss_latency_hist_seqr::samples        10176                       (Unspecified)
board.cache_hierarchy.ruby_system.RequestType.IFETCH.miss_latency_hist_seqr::mean   209.026631                       (Unspecified)
board.cache_hierarchy.ruby_system.RequestType.IFETCH.miss_latency_hist_seqr::gmean   138.757833                       (Unspecified)
board.cache_hierarchy.ruby_system.RequestType.IFETCH.miss_latency_hist_seqr::stdev   191.809709                       (Unspecified)
board.cache_hierarchy.ruby_system.RequestType.IFETCH.miss_latency_hist_seqr |        7127     70.04%     70.04% |        2350     23.09%     93.13% |         565      5.55%     98.68% |          45      0.44%     99.13% |          56      0.55%     99.68% |          33      0.32%    100.00% |           0      0.00%    100.00% |           0      0.00%    100.00% |           0      0.00%    100.00% |           0      0.00%    100.00% (Unspecified)
board.cache_hierarchy.ruby_system.RequestType.IFETCH.miss_latency_hist_seqr::total        10176                       (Unspecified)
board.cache_hierarchy.ruby_system.RequestType.Load_Linked.latency_hist_seqr::bucket_size           64                       (Unspecified)
board.cache_hierarchy.ruby_system.RequestType.Load_Linked.latency_hist_seqr::max_bucket          639                       (Unspecified)
board.cache_hierarchy.ruby_system.RequestType.Load_Linked.latency_hist_seqr::samples          128                       (Unspecified)
board.cache_hierarchy.ruby_system.RequestType.Load_Linked.latency_hist_seqr::mean    13.414062                       (Unspecified)
board.cache_hierarchy.ruby_system.RequestType.Load_Linked.latency_hist_seqr::gmean     1.296249                       (Unspecified)
board.cache_hierarchy.ruby_system.RequestType.Load_Linked.latency_hist_seqr::stdev    59.723052                       (Unspecified)
board.cache_hierarchy.ruby_system.RequestType.Load_Linked.latency_hist_seqr |         122     95.31%     95.31% |           0      0.00%     95.31% |           0      0.00%     95.31% |           4      3.12%     98.44% |           1      0.78%     99.22% |           0      0.00%     99.22% |           0      0.00%     99.22% |           1      0.78%    100.00% |           0      0.00%    100.00% |           0      0.00%    100.00% (Unspecified)
board.cache_hierarchy.ruby_system.RequestType.Load_Linked.latency_hist_seqr::total          128                       (Unspecified)
board.cache_hierarchy.ruby_system.RequestType.Load_Linked.hit_latency_hist_seqr::bucket_size            1                       (Unspecified)
board.cache_hierarchy.ruby_system.RequestType.Load_Linked.hit_latency_hist_seqr::max_bucket            9                       (Unspecified)
board.cache_hierarchy.ruby_system.RequestType.Load_Linked.hit_latency_hist_seqr::samples          122                       (Unspecified)
board.cache_hierarchy.ruby_system.RequestType.Load_Linked.hit_latency_hist_seqr::mean            1                       (Unspecified)
board.cache_hierarchy.ruby_system.RequestType.Load_Linked.hit_latency_hist_seqr::gmean            1                       (Unspecified)
[...]
board.processor.cores9.core.commitStats0.committedInstType::SimdDotProd            0      0.00%     45.73% # Class of committed instruction. (Count)
board.processor.cores9.core.commitStats0.committedInstType::Matrix            0      0.00%     45.73% # Class of committed instruction. (Count)
board.processor.cores9.core.commitStats0.committedInstType::MatrixMov            0      0.00%     45.73% # Class of committed instruction. (Count)
board.processor.cores9.core.commitStats0.committedInstType::MatrixOP            0      0.00%     45.73% # Class of committed instruction. (Count)
board.processor.cores9.core.commitStats0.committedInstType::MemRead       556409     34.11%     79.84% # Class of committed instruction. (Count)
board.processor.cores9.core.commitStats0.committedInstType::MemWrite        78788      4.83%     84.67% # Class of committed instruction. (Count)
board.processor.cores9.core.commitStats0.committedInstType::FloatMemRead       187501     11.49%     96.17% # Class of committed instruction. (Count)
board.processor.cores9.core.commitStats0.committedInstType::FloatMemWrite        62513      3.83%    100.00% # Class of committed instruction. (Count)
board.processor.cores9.core.commitStats0.committedInstType::InstPrefetch            0      0.00%    100.00% # Class of committed instruction. (Count)
board.processor.cores9.core.commitStats0.committedInstType::SimdUnitStrideLoad            0      0.00%    100.00% # Class of committed instruction. (Count)
board.processor.cores9.core.commitStats0.committedInstType::SimdUnitStrideStore            0      0.00%    100.00% # Class of committed instruction. (Count)
board.processor.cores9.core.commitStats0.committedInstType::SimdUnitStrideMaskLoad            0      0.00%    100.00% # Class of committed instruction. (Count)
board.processor.cores9.core.commitStats0.committedInstType::SimdUnitStrideMaskStore            0      0.00%    100.00% # Class of committed instruction. (Count)
board.processor.cores9.core.commitStats0.committedInstType::SimdStridedLoad            0      0.00%    100.00% # Class of committed instruction. (Count)
board.processor.cores9.core.commitStats0.committedInstType::SimdStridedStore            0      0.00%    100.00% # Class of committed instruction. (Count)
board.processor.cores9.core.commitStats0.committedInstType::SimdIndexedLoad            0      0.00%    100.00% # Class of committed instruction. (Count)
board.processor.cores9.core.commitStats0.committedInstType::SimdIndexedStore            0      0.00%    100.00% # Class of committed instruction. (Count)
board.processor.cores9.core.commitStats0.committedInstType::SimdWholeRegisterLoad            0      0.00%    100.00% # Class of committed instruction. (Count)
board.processor.cores9.core.commitStats0.committedInstType::SimdWholeRegisterStore            0      0.00%    100.00% # Class of committed instruction. (Count)
board.processor.cores9.core.commitStats0.committedInstType::SimdUnitStrideFaultOnlyFirstLoad            0      0.00%    100.00% # Class of committed instruction. (Count)
board.processor.cores9.core.commitStats0.committedInstType::SimdUnitStrideSegmentedLoad            0      0.00%    100.00% # Class of committed instruction. (Count)
board.processor.cores9.core.commitStats0.committedInstType::SimdUnitStrideSegmentedStore            0      0.00%    100.00% # Class of committed instruction. (Count)
board.processor.cores9.core.commitStats0.committedInstType::SimdUnitStrideSegmentedFaultOnlyFirstLoad            0      0.00%    100.00% # Class of committed instruction. (Count)
board.processor.cores9.core.commitStats0.committedInstType::SimdStrideSegmentedLoad            0      0.00%    100.00% # Class of committed instruction. (Count)
board.processor.cores9.core.commitStats0.committedInstType::SimdStrideSegmentedStore            0      0.00%    100.00% # Class of committed instruction. (Count)
board.processor.cores9.core.commitStats0.committedInstType::SimdExt            0      0.00%    100.00% # Class of committed instruction. (Count)
board.processor.cores9.core.commitStats0.committedInstType::SimdFloatExt            0      0.00%    100.00% # Class of committed instruction. (Count)
board.processor.cores9.core.commitStats0.committedInstType::SimdConfig            0      0.00%    100.00% # Class of committed instruction. (Count)
board.processor.cores9.core.commitStats0.committedInstType::SimdBf16Add            0      0.00%    100.00% # Class of committed instruction. (Count)
board.processor.cores9.core.commitStats0.committedInstType::SimdBf16Cmp            0      0.00%    100.00% # Class of committed instruction. (Count)
board.processor.cores9.core.commitStats0.committedInstType::SimdBf16Cvt            0      0.00%    100.00% # Class of committed instruction. (Count)
board.processor.cores9.core.commitStats0.committedInstType::SimdBf16DotProd            0      0.00%    100.00% # Class of committed instruction. (Count)
board.processor.cores9.core.commitStats0.committedInstType::SimdBf16MatMultAcc            0      0.00%    100.00% # Class of committed instruction. (Count)
board.processor.cores9.core.commitStats0.committedInstType::SimdBf16Mult            0      0.00%    100.00% # Class of committed instruction. (Count)
board.processor.cores9.core.commitStats0.committedInstType::SimdBf16MultAcc            0      0.00%    100.00% # Class of committed instruction. (Count)
board.processor.cores9.core.commitStats0.committedInstType::Bf16Cvt            0      0.00%    100.00% # Class of committed instruction. (Count)
board.processor.cores9.core.commitStats0.committedInstType::System            0      0.00%    100.00% # Class of committed instruction. (Count)
board.processor.cores9.core.commitStats0.committedInstType::total      1631218                       # Class of committed instruction. (Count)
board.processor.cores9.core.commitStats0.committedControl::IsControl        94747                       # Class of control type instructions committed (Count)
board.processor.cores9.core.commitStats0.committedControl::IsDirectControl        86699                       # Class of control type instructions committed (Count)
board.processor.cores9.core.commitStats0.committedControl::IsIndirectControl         8048                       # Class of control type instructions committed (Count)
board.processor.cores9.core.commitStats0.committedControl::IsCondControl        78634                       # Class of control type instructions committed (Count)
board.processor.cores9.core.commitStats0.committedControl::IsUncondControl        16113                       # Class of control type instructions committed (Count)
board.processor.cores9.core.commitStats0.committedControl::IsCall         8050                       # Class of control type instructions committed (Count)
board.processor.cores9.core.commitStats0.committedControl::IsReturn         8043                       # Class of control type instructions committed (Count)
board.processor.cores9.core.commitStats0.functionCalls         8050                       # Number of function calls committed (Count)
board.processor.cores9.core.commitStats0.numCallsReturns        16093                       # Number of function calls and returns committed (Count)
board.processor.cores9.core.executeStats0.numInsts      1631211                       # Number of executed instructions (Count)
board.processor.cores9.core.executeStats0.numNop            0                       # Number of nop insts executed (Count)
board.processor.cores9.core.executeStats0.numBranches        94747                       # Number of branches executed (Count)
board.processor.cores9.core.executeStats0.numLoadInsts       743906                       # Number of load instructions executed (Count)
board.processor.cores9.core.executeStats0.numStoreInsts       141305                       # Number of stores executed (Count)
board.processor.cores9.core.executeStats0.instRate     0.137663                       # Inst execution rate ((Count/Cycle))
board.processor.cores9.core.executeStats0.numFpAluAccesses       375014                       # Number of float alu accesses (Count)
board.processor.cores9.core.executeStats0.numFpRegReads       312513                       # Number of times the floating registers were read (Count)
board.processor.cores9.core.executeStats0.numFpRegWrites       312501                       # Number of times the floating registers were written (Count)
board.processor.cores9.core.executeStats0.numIntAluAccesses      1506502                       # Number of integer alu accesses (Count)
board.processor.cores9.core.executeStats0.numIntRegReads      1835099                       # Number of times the integer registers were read (Count)
board.processor.cores9.core.executeStats0.numIntRegWrites      1082690                       # Number of times the integer registers were written (Count)
board.processor.cores9.core.executeStats0.numMemRefs       885211                       # Number of memory refs (Count)
board.processor.cores9.core.executeStats0.numVecAluAccesses            0                       # Number of vector alu accesses (Count)
board.processor.cores9.core.executeStats0.numDiscardedOps          317                       # Number of ops (including micro ops) which were discarded before commit (Count)
board.processor.cores9.core.fetch2.totalInstructions      1632582                       # Total number of instructions successfully decoded (Count)
board.processor.cores9.core.fetch2.intInstructions       621750                       # Number of integer instructions successfully decoded (Count)
board.processor.cores9.core.fetch2.fpInstructions       125002                       # Number of floating point instructions successfully decoded (Count)
board.processor.cores9.core.fetch2.vecInstructions            0                       # Number of SIMD instructions successfully decoded (Count)
board.processor.cores9.core.fetch2.loadInstructions       744344                       # Number of memory load instructions successfully decoded (Count)
board.processor.cores9.core.fetch2.storeInstructions       141426                       # Number of memory store instructions successfully decoded (Count)
board.processor.cores9.core.fetch2.amoInstructions            0                       # Number of memory atomic instructions successfully decoded (Count)
board.processor.cores9.core.fetchStats0.numInsts      1632582                       # Number of instructions fetched (thread level) (Count)
board.processor.cores9.core.fetchStats0.numOps            0                       # Number of ops (including micro ops) fetched (thread level) (Count)
board.processor.cores9.core.fetchStats0.fetchRate     0.137779                       # Number of inst fetches per cycle ((Count/Cycle))
board.processor.cores9.core.fetchStats0.numBranches        95006                       # Number of branches fetched (Count)
board.processor.cores9.core.fetchStats0.branchRate     0.008018                       # Number of branch fetches per cycle (Ratio)
board.processor.cores9.core.fetchStats0.numFetchSuspends            0                       # Number of times Execute suspended instruction fetching (Count)
board.processor.cores9.core.mmu.dtb.readHits            0                       # read hits (Count)
board.processor.cores9.core.mmu.dtb.readMisses            0                       # read misses (Count)
board.processor.cores9.core.mmu.dtb.readAccesses            0                       # read accesses (Count)
board.processor.cores9.core.mmu.dtb.writeHits            0                       # write hits (Count)
board.processor.cores9.core.mmu.dtb.writeMisses            0                       # write misses (Count)
board.processor.cores9.core.mmu.dtb.writeAccesses            0                       # write accesses (Count)
board.processor.cores9.core.mmu.dtb.hits            0                       # Total TLB (read and write) hits (Count)
board.processor.cores9.core.mmu.dtb.misses            0                       # Total TLB (read and write) misses (Count)
board.processor.cores9.core.mmu.dtb.accesses            0                       # Total TLB (read and write) accesses (Count)
board.processor.cores9.core.mmu.dtb.walker.num_4kb_walks            0                       # Completed page walks with 4KB pages (Count)
board.processor.cores9.core.mmu.dtb.walker.num_64kb_walks            0                       # Completed page walks with 64KB pages (Count)
board.processor.cores9.core.mmu.dtb.walker.num_2mb_walks            0                       # Completed page walks with 2MB pages (Count)
board.processor.cores9.core.mmu.dtb.walker.power_state.pwrStateResidencyTicks::UNDEFINED  47216700369                       # Cumulative time (in ticks) in various power states (Tick)
board.processor.cores9.core.mmu.itb.readHits            0                       # read hits (Count)
board.processor.cores9.core.mmu.itb.readMisses            0                       # read misses (Count)
board.processor.cores9.core.mmu.itb.readAccesses            0                       # read accesses (Count)
board.processor.cores9.core.mmu.itb.writeHits            0                       # write hits (Count)
board.processor.cores9.core.mmu.itb.writeMisses            0                       # write misses (Count)
board.processor.cores9.core.mmu.itb.writeAccesses            0                       # write accesses (Count)
board.processor.cores9.core.mmu.itb.hits            0                       # Total TLB (read and write) hits (Count)
board.processor.cores9.core.mmu.itb.misses            0                       # Total TLB (read and write) misses (Count)
board.processor.cores9.core.mmu.itb.accesses            0                       # Total TLB (read and write) accesses (Count)
board.processor.cores9.core.mmu.itb.walker.num_4kb_walks            0                       # Completed page walks with 4KB pages (Count)
board.processor.cores9.core.mmu.itb.walker.num_64kb_walks            0                       # Completed page walks with 64KB pages (Count)
board.processor.cores9.core.mmu.itb.walker.num_2mb_walks            0                       # Completed page walks with 2MB pages (Count)
board.processor.cores9.core.mmu.itb.walker.power_state.pwrStateResidencyTicks::UNDEFINED  47216700369                       # Cumulative time (in ticks) in various power states (Tick)
board.processor.cores9.core.power_state.pwrStateResidencyTicks::ON  47216700369                       # Cumulative time (in ticks) in various power states (Tick)
board.processor.cores9.core.thread_0.numInsts      1631211                       # Number of Instructions committed (Count)
board.processor.cores9.core.thread_0.numOps      1631218                       # Number of Ops committed (Count)
board.processor.cores9.core.thread_0.numMemRefs       885211                       # Number of Memory References (Count)
board.workload.inst.arm                             0                       # number of arm instructions executed (Count)
board.workload.inst.quiesce                         0                       # number of quiesce instructions executed (Count)
board.processor.cores00.core.idleCycles      98001879                       # Total number of cycles that the object has spent stopped (Unspecified)
board.processor.cores00.core.tickCycles      43790014                       # Number of cycles that the object actually ticked (Unspecified)
board.processor.cores01.core.idleCycles       9682053                       # Total number of cycles that the object has spent stopped (Unspecified)
board.processor.cores01.core.tickCycles       2227808                       # Number of cycles that the object actually ticked (Unspecified)
board.processor.cores02.core.idleCycles       9725357                       # Total number of cycles that the object has spent stopped (Unspecified)
board.processor.cores02.core.tickCycles       2174661                       # Number of cycles that the object actually ticked (Unspecified)
board.processor.cores03.core.idleCycles       9713570                       # Total number of cycles that the object has spent stopped (Unspecified)
board.processor.cores03.core.tickCycles       2179196                       # Number of cycles that the object actually ticked (Unspecified)
board.processor.cores04.core.idleCycles       9711139                       # Total number of cycles that the object has spent stopped (Unspecified)
board.processor.cores04.core.tickCycles       2173854                       # Number of cycles that the object actually ticked (Unspecified)
board.processor.cores05.core.idleCycles       9679207                       # Total number of cycles that the object has spent stopped (Unspecified)
board.processor.cores05.core.tickCycles       2197664                       # Number of cycles that the object actually ticked (Unspecified)
board.processor.cores06.core.idleCycles       9648333                       # Total number of cycles that the object has spent stopped (Unspecified)
board.processor.cores06.core.tickCycles       2221212                       # Number of cycles that the object actually ticked (Unspecified)
board.processor.cores07.core.idleCycles       9725882                       # Total number of cycles that the object has spent stopped (Unspecified)
board.processor.cores07.core.tickCycles       2137293                       # Number of cycles that the object actually ticked (Unspecified)
board.processor.cores08.core.idleCycles       9723974                       # Total number of cycles that the object has spent stopped (Unspecified)
board.processor.cores08.core.tickCycles       2131737                       # Number of cycles that the object actually ticked (Unspecified)
board.processor.cores09.core.idleCycles       9731185                       # Total number of cycles that the object has spent stopped (Unspecified)
board.processor.cores09.core.tickCycles       2118082                       # Number of cycles that the object actually ticked (Unspecified)
board.processor.cores10.core.idleCycles       9759039                       # Total number of cycles that the object has spent stopped (Unspecified)
board.processor.cores10.core.tickCycles       2083377                       # Number of cycles that the object actually ticked (Unspecified)
board.processor.cores11.core.idleCycles       9721231                       # Total number of cycles that the object has spent stopped (Unspecified)
board.processor.cores11.core.tickCycles       2114485                       # Number of cycles that the object actually ticked (Unspecified)
board.processor.cores12.core.idleCycles       9769109                       # Total number of cycles that the object has spent stopped (Unspecified)
board.processor.cores12.core.tickCycles       2059337                       # Number of cycles that the object actually ticked (Unspecified)
board.processor.cores13.core.idleCycles       9781709                       # Total number of cycles that the object has spent stopped (Unspecified)
board.processor.cores13.core.tickCycles       2039701                       # Number of cycles that the object actually ticked (Unspecified)
board.processor.cores14.core.idleCycles       9806072                       # Total number of cycles that the object has spent stopped (Unspecified)
board.processor.cores14.core.tickCycles       2009269                       # Number of cycles that the object actually ticked (Unspecified)
board.processor.cores15.core.idleCycles       9759235                       # Total number of cycles that the object has spent stopped (Unspecified)
board.processor.cores15.core.tickCycles       2049007                       # Number of cycles that the object actually ticked (Unspecified)

---------- End Simulation Statistics   ----------
