
---------- Begin Simulation Statistics ----------
simSeconds                                   0.001519                       # Number of seconds simulated (Second)
simTicks                                   1519208604                       # Number of ticks simulated (Tick)
finalTick                                 11828963862                       # Number of ticks from beginning of simulation (restored from checkpoints and never reset) (Tick)
simFreq                                  1000000000000                       # The number of ticks per simulated second ((Tick/Second))
hostSeconds                                     21.66                       # Real time elapsed on the host (Second)
hostTickRate                                 70142946                       # The number of ticks simulated per host second (ticks/s) ((Tick/Second))
hostMemory                                    4421024                       # Number of bytes of host memory used (Byte)
simInsts                                      5605910                       # Number of instructions simulated (Count)
simOps                                        5607518                       # Number of ops (including micro ops) simulated (Count)
hostInstRate                                   258827                       # Simulator instruction rate (inst/s) ((Count/Second))
hostOpRate                                     258901                       # Simulator op (including micro ops) rate (op/s) ((Count/Second))
board.cache_hierarchy.clusters0.dptw_cache.blockedCycles::no_mshrs            0                       # number of cycles access was blocked (Cycle)
board.cache_hierarchy.clusters0.dptw_cache.blockedCycles::no_wbuffers            0                       # number of cycles access was blocked (Cycle)
board.cache_hierarchy.clusters0.dptw_cache.blockedCycles::no_targets            0                       # number of cycles access was blocked (Cycle)
board.cache_hierarchy.clusters0.dptw_cache.blockedCauses::no_mshrs            0                       # number of times access was blocked (Count)
board.cache_hierarchy.clusters0.dptw_cache.blockedCauses::no_wbuffers            0                       # number of times access was blocked (Count)
board.cache_hierarchy.clusters0.dptw_cache.blockedCauses::no_targets            0                       # number of times access was blocked (Count)
board.cache_hierarchy.clusters0.dptw_cache.avgBlocked::no_mshrs          nan                       # average number of cycles each access was blocked ((Cycle/Count))
board.cache_hierarchy.clusters0.dptw_cache.avgBlocked::no_wbuffers          nan                       # average number of cycles each access was blocked ((Cycle/Count))
board.cache_hierarchy.clusters0.dptw_cache.avgBlocked::no_targets          nan                       # average number of cycles each access was blocked ((Cycle/Count))
board.cache_hierarchy.clusters0.dptw_cache.replacements            0                       # number of replacements (Count)
board.cache_hierarchy.clusters0.dptw_cache.power_state.pwrStateResidencyTicks::UNDEFINED  11828963862                       # Cumulative time (in ticks) in various power states (Tick)
board.cache_hierarchy.clusters0.dptw_cache.tags.tagsInUse            0                       # Average ticks per tags in use ((Tick/Count))
board.cache_hierarchy.clusters0.dptw_cache.tags.totalRefs            0                       # Total number of references to valid blocks. (Count)
board.cache_hierarchy.clusters0.dptw_cache.tags.sampledRefs            0                       # Sample count of references to valid blocks. (Count)
board.cache_hierarchy.clusters0.dptw_cache.tags.avgRefs          nan                       # Average number of references to valid blocks. ((Count/Count))
board.cache_hierarchy.clusters0.dptw_cache.tags.warmupTick            0                       # The tick when the warmup percentage was hit. (Tick)
board.cache_hierarchy.clusters0.dptw_cache.tags.tagAccesses            0                       # Number of tag accesses (Count)
board.cache_hierarchy.clusters0.dptw_cache.tags.dataAccesses            0                       # Number of data accesses (Count)
board.cache_hierarchy.clusters0.dptw_cache.tags.power_state.pwrStateResidencyTicks::UNDEFINED  11828963862                       # Cumulative time (in ticks) in various power states (Tick)
board.cache_hierarchy.clusters0.iptw_cache.blockedCycles::no_mshrs            0                       # number of cycles access was blocked (Cycle)
board.cache_hierarchy.clusters0.iptw_cache.blockedCycles::no_wbuffers            0                       # number of cycles access was blocked (Cycle)
board.cache_hierarchy.clusters0.iptw_cache.blockedCycles::no_targets            0                       # number of cycles access was blocked (Cycle)
board.cache_hierarchy.clusters0.iptw_cache.blockedCauses::no_mshrs            0                       # number of times access was blocked (Count)
board.cache_hierarchy.clusters0.iptw_cache.blockedCauses::no_wbuffers            0                       # number of times access was blocked (Count)
board.cache_hierarchy.clusters0.iptw_cache.blockedCauses::no_targets            0                       # number of times access was blocked (Count)
board.cache_hierarchy.clusters0.iptw_cache.avgBlocked::no_mshrs          nan                       # average number of cycles each access was blocked ((Cycle/Count))
board.cache_hierarchy.clusters0.iptw_cache.avgBlocked::no_wbuffers          nan                       # average number of cycles each access was blocked ((Cycle/Count))
board.cache_hierarchy.clusters0.iptw_cache.avgBlocked::no_targets          nan                       # average number of cycles each access was blocked ((Cycle/Count))
board.cache_hierarchy.clusters0.iptw_cache.replacements            0                       # number of replacements (Count)
board.cache_hierarchy.clusters0.iptw_cache.power_state.pwrStateResidencyTicks::UNDEFINED  11828963862                       # Cumulative time (in ticks) in various power states (Tick)
board.cache_hierarchy.clusters0.iptw_cache.tags.tagsInUse            0                       # Average ticks per tags in use ((Tick/Count))
board.cache_hierarchy.clusters0.iptw_cache.tags.totalRefs            0                       # Total number of references to valid blocks. (Count)
board.cache_hierarchy.clusters0.iptw_cache.tags.sampledRefs            0                       # Sample count of references to valid blocks. (Count)
board.cache_hierarchy.clusters0.iptw_cache.tags.avgRefs          nan                       # Average number of references to valid blocks. ((Count/Count))
board.cache_hierarchy.clusters0.iptw_cache.tags.warmupTick            0                       # The tick when the warmup percentage was hit. (Tick)
board.cache_hierarchy.clusters0.iptw_cache.tags.tagAccesses            0                       # Number of tag accesses (Count)
board.cache_hierarchy.clusters0.iptw_cache.tags.dataAccesses            0                       # Number of data accesses (Count)
board.cache_hierarchy.clusters0.iptw_cache.tags.power_state.pwrStateResidencyTicks::UNDEFINED  11828963862                       # Cumulative time (in ticks) in various power states (Tick)
board.cache_hierarchy.clusters0.l1d_cache.demandHits::processor.cores0.core.data      1285889                       # number of demand (read+write) hits (Count)
board.cache_hierarchy.clusters0.l1d_cache.demandHits::total      1285889                       # number of demand (read+write) hits (Count)
board.cache_hierarchy.clusters0.l1d_cache.overallHits::processor.cores0.core.data      1285889                       # number of overall hits (Count)
board.cache_hierarchy.clusters0.l1d_cache.overallHits::total      1285889                       # number of overall hits (Count)
board.cache_hierarchy.clusters0.l1d_cache.demandMisses::processor.cores0.core.data        89900                       # number of demand (read+write) misses (Count)
board.cache_hierarchy.clusters0.l1d_cache.demandMisses::total        89900                       # number of demand (read+write) misses (Count)
board.cache_hierarchy.clusters0.l1d_cache.overallMisses::processor.cores0.core.data        89900                       # number of overall misses (Count)
board.cache_hierarchy.clusters0.l1d_cache.overallMisses::total        89900                       # number of overall misses (Count)
board.cache_hierarchy.clusters0.l1d_cache.demandMissLatency::processor.cores0.core.data   1027175463                       # number of demand (read+write) miss ticks (Tick)
board.cache_hierarchy.clusters0.l1d_cache.demandMissLatency::total   1027175463                       # number of demand (read+write) miss ticks (Tick)
board.cache_hierarchy.clusters0.l1d_cache.overallMissLatency::processor.cores0.core.data   1027175463                       # number of overall miss ticks (Tick)
board.cache_hierarchy.clusters0.l1d_cache.overallMissLatency::total   1027175463                       # number of overall miss ticks (Tick)
board.cache_hierarchy.clusters0.l1d_cache.demandAccesses::processor.cores0.core.data      1375789                       # number of demand (read+write) accesses (Count)
board.cache_hierarchy.clusters0.l1d_cache.demandAccesses::total      1375789                       # number of demand (read+write) accesses (Count)
board.cache_hierarchy.clusters0.l1d_cache.overallAccesses::processor.cores0.core.data      1375789                       # number of overall (read+write) accesses (Count)
board.cache_hierarchy.clusters0.l1d_cache.overallAccesses::total      1375789                       # number of overall (read+write) accesses (Count)
board.cache_hierarchy.clusters0.l1d_cache.demandMissRate::processor.cores0.core.data     0.065344                       # miss rate for demand accesses (Ratio)
board.cache_hierarchy.clusters0.l1d_cache.demandMissRate::total     0.065344                       # miss rate for demand accesses (Ratio)
board.cache_hierarchy.clusters0.l1d_cache.overallMissRate::processor.cores0.core.data     0.065344                       # miss rate for overall accesses (Ratio)
board.cache_hierarchy.clusters0.l1d_cache.overallMissRate::total     0.065344                       # miss rate for overall accesses (Ratio)
board.cache_hierarchy.clusters0.l1d_cache.demandAvgMissLatency::processor.cores0.core.data 11425.755984                       # average overall miss latency in ticks ((Tick/Count))
board.cache_hierarchy.clusters0.l1d_cache.demandAvgMissLatency::total 11425.755984                       # average overall miss latency in ticks ((Tick/Count))
board.cache_hierarchy.clusters0.l1d_cache.overallAvgMissLatency::processor.cores0.core.data 11425.755984                       # average overall miss latency ((Tick/Count))
board.cache_hierarchy.clusters0.l1d_cache.overallAvgMissLatency::total 11425.755984                       # average overall miss latency ((Tick/Count))
board.cache_hierarchy.clusters0.l1d_cache.blockedCycles::no_mshrs            0                       # number of cycles access was blocked (Cycle)
board.cache_hierarchy.clusters0.l1d_cache.blockedCycles::no_wbuffers            0                       # number of cycles access was blocked (Cycle)
board.cache_hierarchy.clusters0.l1d_cache.blockedCycles::no_targets            0                       # number of cycles access was blocked (Cycle)
board.cache_hierarchy.clusters0.l1d_cache.blockedCauses::no_mshrs            0                       # number of times access was blocked (Count)
board.cache_hierarchy.clusters0.l1d_cache.blockedCauses::no_wbuffers            0                       # number of times access was blocked (Count)
board.cache_hierarchy.clusters0.l1d_cache.blockedCauses::no_targets            0                       # number of times access was blocked (Count)
board.cache_hierarchy.clusters0.l1d_cache.avgBlocked::no_mshrs          nan                       # average number of cycles each access was blocked ((Cycle/Count))
board.cache_hierarchy.clusters0.l1d_cache.avgBlocked::no_wbuffers          nan                       # average number of cycles each access was blocked ((Cycle/Count))
board.cache_hierarchy.clusters0.l1d_cache.avgBlocked::no_targets          nan                       # average number of cycles each access was blocked ((Cycle/Count))
board.cache_hierarchy.clusters0.l1d_cache.writebacks::writebacks         3722                       # number of writebacks (Count)
board.cache_hierarchy.clusters0.l1d_cache.writebacks::total         3722                       # number of writebacks (Count)
board.cache_hierarchy.clusters0.l1d_cache.demandMshrHits::processor.cores0.core.data        13406                       # number of demand (read+write) MSHR hits (Count)
board.cache_hierarchy.clusters0.l1d_cache.demandMshrHits::total        13406                       # number of demand (read+write) MSHR hits (Count)
board.cache_hierarchy.clusters0.l1d_cache.overallMshrHits::processor.cores0.core.data        13406                       # number of overall MSHR hits (Count)
board.cache_hierarchy.clusters0.l1d_cache.overallMshrHits::total        13406                       # number of overall MSHR hits (Count)
board.cache_hierarchy.clusters0.l1d_cache.demandMshrMisses::processor.cores0.core.data        76494                       # number of demand (read+write) MSHR misses (Count)
board.cache_hierarchy.clusters0.l1d_cache.demandMshrMisses::total        76494                       # number of demand (read+write) MSHR misses (Count)
board.cache_hierarchy.clusters0.l1d_cache.overallMshrMisses::cache_hierarchy.clusters0.l1d_cache.prefetcher         1277                       # number of overall MSHR misses (Count)
board.cache_hierarchy.clusters0.l1d_cache.overallMshrMisses::processor.cores0.core.data        76494                       # number of overall MSHR misses (Count)
board.cache_hierarchy.clusters0.l1d_cache.overallMshrMisses::total        77771                       # number of overall MSHR misses (Count)
board.cache_hierarchy.clusters0.l1d_cache.demandMshrMissLatency::processor.cores0.core.data    966021678                       # number of demand (read+write) MSHR miss ticks (Tick)
board.cache_hierarchy.clusters0.l1d_cache.demandMshrMissLatency::total    966021678                       # number of demand (read+write) MSHR miss ticks (Tick)
board.cache_hierarchy.clusters0.l1d_cache.overallMshrMissLatency::cache_hierarchy.clusters0.l1d_cache.prefetcher     11402476                       # number of overall MSHR miss ticks (Tick)
board.cache_hierarchy.clusters0.l1d_cache.overallMshrMissLatency::processor.cores0.core.data    966021678                       # number of overall MSHR miss ticks (Tick)
board.cache_hierarchy.clusters0.l1d_cache.overallMshrMissLatency::total    977424154                       # number of overall MSHR miss ticks (Tick)
board.cache_hierarchy.clusters0.l1d_cache.demandMshrMissRate::processor.cores0.core.data     0.055600                       # mshr miss ratio for demand accesses (Ratio)
board.cache_hierarchy.clusters0.l1d_cache.demandMshrMissRate::total     0.055600                       # mshr miss ratio for demand accesses (Ratio)
board.cache_hierarchy.clusters0.l1d_cache.overallMshrMissRate::cache_hierarchy.clusters0.l1d_cache.prefetcher          inf                       # mshr miss ratio for overall accesses (Ratio)
board.cache_hierarchy.clusters0.l1d_cache.overallMshrMissRate::processor.cores0.core.data     0.055600                       # mshr miss ratio for overall accesses (Ratio)
board.cache_hierarchy.clusters0.l1d_cache.overallMshrMissRate::total     0.056528                       # mshr miss ratio for overall accesses (Ratio)
board.cache_hierarchy.clusters0.l1d_cache.demandAvgMshrMissLatency::processor.cores0.core.data 12628.724841                       # average overall mshr miss latency ((Tick/Count))
board.cache_hierarchy.clusters0.l1d_cache.demandAvgMshrMissLatency::total 12628.724841                       # average overall mshr miss latency ((Tick/Count))
board.cache_hierarchy.clusters0.l1d_cache.overallAvgMshrMissLatency::cache_hierarchy.clusters0.l1d_cache.prefetcher  8929.111981                       # average overall mshr miss latency ((Tick/Count))
board.cache_hierarchy.clusters0.l1d_cache.overallAvgMshrMissLatency::processor.cores0.core.data 12628.724841                       # average overall mshr miss latency ((Tick/Count))
board.cache_hierarchy.clusters0.l1d_cache.overallAvgMshrMissLatency::total 12567.977189                       # average overall mshr miss latency ((Tick/Count))
board.cache_hierarchy.clusters0.l1d_cache.replacements         3722                       # number of replacements (Count)
board.cache_hierarchy.clusters0.l1d_cache.HardPFReq.mshrMisses::cache_hierarchy.clusters0.l1d_cache.prefetcher         1277                       # number of HardPFReq MSHR misses (Count)
board.cache_hierarchy.clusters0.l1d_cache.HardPFReq.mshrMisses::total         1277                       # number of HardPFReq MSHR misses (Count)
board.cache_hierarchy.clusters0.l1d_cache.HardPFReq.mshrMissLatency::cache_hierarchy.clusters0.l1d_cache.prefetcher     11402476                       # number of HardPFReq MSHR miss ticks (Tick)
board.cache_hierarchy.clusters0.l1d_cache.HardPFReq.mshrMissLatency::total     11402476                       # number of HardPFReq MSHR miss ticks (Tick)
board.cache_hierarchy.clusters0.l1d_cache.HardPFReq.mshrMissRate::cache_hierarchy.clusters0.l1d_cache.prefetcher          inf                       # mshr miss rate for HardPFReq accesses (Ratio)
board.cache_hierarchy.clusters0.l1d_cache.HardPFReq.mshrMissRate::total          inf                       # mshr miss rate for HardPFReq accesses (Ratio)
board.cache_hierarchy.clusters0.l1d_cache.HardPFReq.avgMshrMissLatency::cache_hierarchy.clusters0.l1d_cache.prefetcher  8929.111981                       # average HardPFReq mshr miss latency ((Tick/Count))
board.cache_hierarchy.clusters0.l1d_cache.HardPFReq.avgMshrMissLatency::total  8929.111981                       # average HardPFReq mshr miss latency ((Tick/Count))
board.cache_hierarchy.clusters0.l1d_cache.LoadLockedReq.hits::processor.cores0.core.data          100                       # number of LoadLockedReq hits (Count)
board.cache_hierarchy.clusters0.l1d_cache.LoadLockedReq.hits::total          100                       # number of LoadLockedReq hits (Count)
board.cache_hierarchy.clusters0.l1d_cache.LoadLockedReq.accesses::processor.cores0.core.data          100                       # number of LoadLockedReq accesses(hits+misses) (Count)
board.cache_hierarchy.clusters0.l1d_cache.LoadLockedReq.accesses::total          100                       # number of LoadLockedReq accesses(hits+misses) (Count)
board.cache_hierarchy.clusters0.l1d_cache.ReadReq.hits::processor.cores0.core.data      1130057                       # number of ReadReq hits (Count)
board.cache_hierarchy.clusters0.l1d_cache.ReadReq.hits::total      1130057                       # number of ReadReq hits (Count)
board.cache_hierarchy.clusters0.l1d_cache.ReadReq.misses::processor.cores0.core.data        29981                       # number of ReadReq misses (Count)
board.cache_hierarchy.clusters0.l1d_cache.ReadReq.misses::total        29981                       # number of ReadReq misses (Count)
board.cache_hierarchy.clusters0.l1d_cache.ReadReq.missLatency::processor.cores0.core.data    326738934                       # number of ReadReq miss ticks (Tick)
board.cache_hierarchy.clusters0.l1d_cache.ReadReq.missLatency::total    326738934                       # number of ReadReq miss ticks (Tick)
board.cache_hierarchy.clusters0.l1d_cache.ReadReq.accesses::processor.cores0.core.data      1160038                       # number of ReadReq accesses(hits+misses) (Count)
board.cache_hierarchy.clusters0.l1d_cache.ReadReq.accesses::total      1160038                       # number of ReadReq accesses(hits+misses) (Count)
board.cache_hierarchy.clusters0.l1d_cache.ReadReq.missRate::processor.cores0.core.data     0.025845                       # miss rate for ReadReq accesses (Ratio)
board.cache_hierarchy.clusters0.l1d_cache.ReadReq.missRate::total     0.025845                       # miss rate for ReadReq accesses (Ratio)
board.cache_hierarchy.clusters0.l1d_cache.ReadReq.avgMissLatency::processor.cores0.core.data 10898.199993                       # average ReadReq miss latency ((Tick/Count))
board.cache_hierarchy.clusters0.l1d_cache.ReadReq.avgMissLatency::total 10898.199993                       # average ReadReq miss latency ((Tick/Count))
board.cache_hierarchy.clusters0.l1d_cache.ReadReq.mshrHits::processor.cores0.core.data            2                       # number of ReadReq MSHR hits (Count)
board.cache_hierarchy.clusters0.l1d_cache.ReadReq.mshrHits::total            2                       # number of ReadReq MSHR hits (Count)
board.cache_hierarchy.clusters0.l1d_cache.ReadReq.mshrMisses::processor.cores0.core.data        29979                       # number of ReadReq MSHR misses (Count)
board.cache_hierarchy.clusters0.l1d_cache.ReadReq.mshrMisses::total        29979                       # number of ReadReq MSHR misses (Count)
board.cache_hierarchy.clusters0.l1d_cache.ReadReq.mshrMissLatency::processor.cores0.core.data    316746270                       # number of ReadReq MSHR miss ticks (Tick)
board.cache_hierarchy.clusters0.l1d_cache.ReadReq.mshrMissLatency::total    316746270                       # number of ReadReq MSHR miss ticks (Tick)
board.cache_hierarchy.clusters0.l1d_cache.ReadReq.mshrMissRate::processor.cores0.core.data     0.025843                       # mshr miss rate for ReadReq accesses (Ratio)
board.cache_hierarchy.clusters0.l1d_cache.ReadReq.mshrMissRate::total     0.025843                       # mshr miss rate for ReadReq accesses (Ratio)
board.cache_hierarchy.clusters0.l1d_cache.ReadReq.avgMshrMissLatency::processor.cores0.core.data 10565.604923                       # average ReadReq mshr miss latency ((Tick/Count))
board.cache_hierarchy.clusters0.l1d_cache.ReadReq.avgMshrMissLatency::total 10565.604923                       # average ReadReq mshr miss latency ((Tick/Count))
board.cache_hierarchy.clusters0.l1d_cache.StoreCondReq.misses::processor.cores0.core.data          100                       # number of StoreCondReq misses (Count)
board.cache_hierarchy.clusters0.l1d_cache.StoreCondReq.misses::total          100                       # number of StoreCondReq misses (Count)
board.cache_hierarchy.clusters0.l1d_cache.StoreCondReq.missLatency::processor.cores0.core.data      1598400                       # number of StoreCondReq miss ticks (Tick)
board.cache_hierarchy.clusters0.l1d_cache.StoreCondReq.missLatency::total      1598400                       # number of StoreCondReq miss ticks (Tick)
board.cache_hierarchy.clusters0.l1d_cache.StoreCondReq.accesses::processor.cores0.core.data          100                       # number of StoreCondReq accesses(hits+misses) (Count)
board.cache_hierarchy.clusters0.l1d_cache.StoreCondReq.accesses::total          100                       # number of StoreCondReq accesses(hits+misses) (Count)
board.cache_hierarchy.clusters0.l1d_cache.StoreCondReq.missRate::processor.cores0.core.data            1                       # miss rate for StoreCondReq accesses (Ratio)
board.cache_hierarchy.clusters0.l1d_cache.StoreCondReq.missRate::total            1                       # miss rate for StoreCondReq accesses (Ratio)
board.cache_hierarchy.clusters0.l1d_cache.StoreCondReq.avgMissLatency::processor.cores0.core.data        15984                       # average StoreCondReq miss latency ((Tick/Count))
board.cache_hierarchy.clusters0.l1d_cache.StoreCondReq.avgMissLatency::total        15984                       # average StoreCondReq miss latency ((Tick/Count))
board.cache_hierarchy.clusters0.l1d_cache.StoreCondReq.mshrMisses::processor.cores0.core.data          100                       # number of StoreCondReq MSHR misses (Count)
board.cache_hierarchy.clusters0.l1d_cache.StoreCondReq.mshrMisses::total          100                       # number of StoreCondReq MSHR misses (Count)
board.cache_hierarchy.clusters0.l1d_cache.StoreCondReq.mshrMissLatency::processor.cores0.core.data      1565100                       # number of StoreCondReq MSHR miss ticks (Tick)
board.cache_hierarchy.clusters0.l1d_cache.StoreCondReq.mshrMissLatency::total      1565100                       # number of StoreCondReq MSHR miss ticks (Tick)
board.cache_hierarchy.clusters0.l1d_cache.StoreCondReq.mshrMissRate::processor.cores0.core.data            1                       # mshr miss rate for StoreCondReq accesses (Ratio)
board.cache_hierarchy.clusters0.l1d_cache.StoreCondReq.mshrMissRate::total            1                       # mshr miss rate for StoreCondReq accesses (Ratio)
board.cache_hierarchy.clusters0.l1d_cache.StoreCondReq.avgMshrMissLatency::processor.cores0.core.data        15651                       # average StoreCondReq mshr miss latency ((Tick/Count))
board.cache_hierarchy.clusters0.l1d_cache.StoreCondReq.avgMshrMissLatency::total        15651                       # average StoreCondReq mshr miss latency ((Tick/Count))
board.cache_hierarchy.clusters0.l1d_cache.SwapReq.hits::processor.cores0.core.data           79                       # number of SwapReq hits (Count)
board.cache_hierarchy.clusters0.l1d_cache.SwapReq.hits::total           79                       # number of SwapReq hits (Count)
board.cache_hierarchy.clusters0.l1d_cache.SwapReq.misses::processor.cores0.core.data          323                       # number of SwapReq misses (Count)
board.cache_hierarchy.clusters0.l1d_cache.SwapReq.misses::total          323                       # number of SwapReq misses (Count)
board.cache_hierarchy.clusters0.l1d_cache.SwapReq.missLatency::processor.cores0.core.data      3011652                       # number of SwapReq miss ticks (Tick)
board.cache_hierarchy.clusters0.l1d_cache.SwapReq.missLatency::total      3011652                       # number of SwapReq miss ticks (Tick)
board.cache_hierarchy.clusters0.l1d_cache.SwapReq.accesses::processor.cores0.core.data          402                       # number of SwapReq accesses(hits+misses) (Count)
board.cache_hierarchy.clusters0.l1d_cache.SwapReq.accesses::total          402                       # number of SwapReq accesses(hits+misses) (Count)
board.cache_hierarchy.clusters0.l1d_cache.SwapReq.missRate::processor.cores0.core.data     0.803483                       # miss rate for SwapReq accesses (Ratio)
board.cache_hierarchy.clusters0.l1d_cache.SwapReq.missRate::total     0.803483                       # miss rate for SwapReq accesses (Ratio)
board.cache_hierarchy.clusters0.l1d_cache.SwapReq.avgMissLatency::processor.cores0.core.data         9324                       # average SwapReq miss latency ((Tick/Count))
board.cache_hierarchy.clusters0.l1d_cache.SwapReq.avgMissLatency::total         9324                       # average SwapReq miss latency ((Tick/Count))
board.cache_hierarchy.clusters0.l1d_cache.SwapReq.mshrMisses::processor.cores0.core.data          323                       # number of SwapReq MSHR misses (Count)
board.cache_hierarchy.clusters0.l1d_cache.SwapReq.mshrMisses::total          323                       # number of SwapReq MSHR misses (Count)
board.cache_hierarchy.clusters0.l1d_cache.SwapReq.mshrMissLatency::processor.cores0.core.data      2904093                       # number of SwapReq MSHR miss ticks (Tick)
board.cache_hierarchy.clusters0.l1d_cache.SwapReq.mshrMissLatency::total      2904093                       # number of SwapReq MSHR miss ticks (Tick)
board.cache_hierarchy.clusters0.l1d_cache.SwapReq.mshrMissRate::processor.cores0.core.data     0.803483                       # mshr miss rate for SwapReq accesses (Ratio)
board.cache_hierarchy.clusters0.l1d_cache.SwapReq.mshrMissRate::total     0.803483                       # mshr miss rate for SwapReq accesses (Ratio)
board.cache_hierarchy.clusters0.l1d_cache.SwapReq.avgMshrMissLatency::processor.cores0.core.data         8991                       # average SwapReq mshr miss latency ((Tick/Count))
board.cache_hierarchy.clusters0.l1d_cache.SwapReq.avgMshrMissLatency::total         8991                       # average SwapReq mshr miss latency ((Tick/Count))
board.cache_hierarchy.clusters0.l1d_cache.WriteReq.hits::processor.cores0.core.data       155832                       # number of WriteReq hits (Count)
board.cache_hierarchy.clusters0.l1d_cache.WriteReq.hits::total       155832                       # number of WriteReq hits (Count)
board.cache_hierarchy.clusters0.l1d_cache.WriteReq.misses::processor.cores0.core.data        59919                       # number of WriteReq misses (Count)
board.cache_hierarchy.clusters0.l1d_cache.WriteReq.misses::total        59919                       # number of WriteReq misses (Count)
board.cache_hierarchy.clusters0.l1d_cache.WriteReq.missLatency::processor.cores0.core.data    700436529                       # number of WriteReq miss ticks (Tick)
board.cache_hierarchy.clusters0.l1d_cache.WriteReq.missLatency::total    700436529                       # number of WriteReq miss ticks (Tick)
board.cache_hierarchy.clusters0.l1d_cache.WriteReq.accesses::processor.cores0.core.data       215751                       # number of WriteReq accesses(hits+misses) (Count)
board.cache_hierarchy.clusters0.l1d_cache.WriteReq.accesses::total       215751                       # number of WriteReq accesses(hits+misses) (Count)
board.cache_hierarchy.clusters0.l1d_cache.WriteReq.missRate::processor.cores0.core.data     0.277723                       # miss rate for WriteReq accesses (Ratio)
board.cache_hierarchy.clusters0.l1d_cache.WriteReq.missRate::total     0.277723                       # miss rate for WriteReq accesses (Ratio)
board.cache_hierarchy.clusters0.l1d_cache.WriteReq.avgMissLatency::processor.cores0.core.data 11689.723276                       # average WriteReq miss latency ((Tick/Count))
board.cache_hierarchy.clusters0.l1d_cache.WriteReq.avgMissLatency::total 11689.723276                       # average WriteReq miss latency ((Tick/Count))
board.cache_hierarchy.clusters0.l1d_cache.WriteReq.mshrHits::processor.cores0.core.data        13404                       # number of WriteReq MSHR hits (Count)
board.cache_hierarchy.clusters0.l1d_cache.WriteReq.mshrHits::total        13404                       # number of WriteReq MSHR hits (Count)
board.cache_hierarchy.clusters0.l1d_cache.WriteReq.mshrMisses::processor.cores0.core.data        46515                       # number of WriteReq MSHR misses (Count)
board.cache_hierarchy.clusters0.l1d_cache.WriteReq.mshrMisses::total        46515                       # number of WriteReq MSHR misses (Count)
board.cache_hierarchy.clusters0.l1d_cache.WriteReq.mshrMissLatency::processor.cores0.core.data    649275408                       # number of WriteReq MSHR miss ticks (Tick)
board.cache_hierarchy.clusters0.l1d_cache.WriteReq.mshrMissLatency::total    649275408                       # number of WriteReq MSHR miss ticks (Tick)
board.cache_hierarchy.clusters0.l1d_cache.WriteReq.mshrMissRate::processor.cores0.core.data     0.215596                       # mshr miss rate for WriteReq accesses (Ratio)
board.cache_hierarchy.clusters0.l1d_cache.WriteReq.mshrMissRate::total     0.215596                       # mshr miss rate for WriteReq accesses (Ratio)
board.cache_hierarchy.clusters0.l1d_cache.WriteReq.avgMshrMissLatency::processor.cores0.core.data 13958.409287                       # average WriteReq mshr miss latency ((Tick/Count))
board.cache_hierarchy.clusters0.l1d_cache.WriteReq.avgMshrMissLatency::total 13958.409287                       # average WriteReq mshr miss latency ((Tick/Count))
board.cache_hierarchy.clusters0.l1d_cache.power_state.pwrStateResidencyTicks::UNDEFINED  11828963862                       # Cumulative time (in ticks) in various power states (Tick)
board.cache_hierarchy.clusters0.l1d_cache.prefetcher.demandMshrMisses        76494                       # demands not covered by prefetchs (Count)
board.cache_hierarchy.clusters0.l1d_cache.prefetcher.pfIssued         3655                       # number of hwpf issued (Count)
board.cache_hierarchy.clusters0.l1d_cache.prefetcher.pfUnused          280                       # number of HardPF blocks evicted w/o reference (Count)
board.cache_hierarchy.clusters0.l1d_cache.prefetcher.pfUseful         1005                       # number of useful prefetch (Count)
board.cache_hierarchy.clusters0.l1d_cache.prefetcher.pfUsefulButMiss           65                       # number of hit on prefetch but cache block is not in an usable state (Count)
board.cache_hierarchy.clusters0.l1d_cache.prefetcher.accuracy     0.274966                       # accuracy of the prefetcher (Count)
board.cache_hierarchy.clusters0.l1d_cache.prefetcher.coverage     0.012968                       # coverage brought by this prefetcher (Count)
board.cache_hierarchy.clusters0.l1d_cache.prefetcher.pfHitInCache         2372                       # number of prefetches hitting in cache (Count)
board.cache_hierarchy.clusters0.l1d_cache.prefetcher.pfHitInMSHR            6                       # number of prefetches hitting in a MSHR (Count)
board.cache_hierarchy.clusters0.l1d_cache.prefetcher.pfHitInWB            0                       # number of prefetches hit in the Write Buffer (Count)
board.cache_hierarchy.clusters0.l1d_cache.prefetcher.pfLate         2378                       # number of late prefetches (hitting in cache, MSHR or WB) (Count)
board.cache_hierarchy.clusters0.l1d_cache.prefetcher.pfIdentified         3655                       # number of prefetch candidates identified (Count)
board.cache_hierarchy.clusters0.l1d_cache.prefetcher.pfBufferHit            0                       # number of redundant prefetches already in prefetch queue (Count)
board.cache_hierarchy.clusters0.l1d_cache.prefetcher.pfInCache            0                       # number of redundant prefetches already in cache/mshr dropped (Count)
board.cache_hierarchy.clusters0.l1d_cache.prefetcher.pfRemovedDemand            0                       # number of prefetches dropped due to a demand for the same address (Count)
board.cache_hierarchy.clusters0.l1d_cache.prefetcher.pfRemovedFull            0                       # number of prefetches dropped due to prefetch queue size (Count)
board.cache_hierarchy.clusters0.l1d_cache.prefetcher.pfSpanPage         2633                       # number of prefetches that crossed the page (Count)
board.cache_hierarchy.clusters0.l1d_cache.prefetcher.pfUsefulSpanPage          711                       # number of prefetches that is useful and crossed the page (Count)
board.cache_hierarchy.clusters0.l1d_cache.prefetcher.power_state.pwrStateResidencyTicks::UNDEFINED  11828963862                       # Cumulative time (in ticks) in various power states (Tick)
board.cache_hierarchy.clusters0.l1d_cache.tags.tagsInUse   509.949251                       # Average ticks per tags in use ((Tick/Count))
board.cache_hierarchy.clusters0.l1d_cache.tags.totalRefs      8564465                       # Total number of references to valid blocks. (Count)
board.cache_hierarchy.clusters0.l1d_cache.tags.sampledRefs        49372                       # Sample count of references to valid blocks. (Count)
board.cache_hierarchy.clusters0.l1d_cache.tags.avgRefs   173.468059                       # Average number of references to valid blocks. ((Count/Count))
board.cache_hierarchy.clusters0.l1d_cache.tags.warmupTick            0                       # The tick when the warmup percentage was hit. (Tick)
board.cache_hierarchy.clusters0.l1d_cache.tags.occupancies::cache_hierarchy.clusters0.l1d_cache.prefetcher   247.136902                       # Average occupied blocks per tick, per requestor ((Count/Tick))
board.cache_hierarchy.clusters0.l1d_cache.tags.occupancies::processor.cores0.core.data   262.812349                       # Average occupied blocks per tick, per requestor ((Count/Tick))
board.cache_hierarchy.clusters0.l1d_cache.tags.avgOccs::cache_hierarchy.clusters0.l1d_cache.prefetcher     0.482689                       # Average percentage of cache occupancy ((Ratio/Tick))
board.cache_hierarchy.clusters0.l1d_cache.tags.avgOccs::processor.cores0.core.data     0.513305                       # Average percentage of cache occupancy ((Ratio/Tick))
board.cache_hierarchy.clusters0.l1d_cache.tags.avgOccs::total     0.995995                       # Average percentage of cache occupancy ((Ratio/Tick))
board.cache_hierarchy.clusters0.l1d_cache.tags.occupanciesTaskId::1022          314                       # Occupied blocks per task id (Count)
board.cache_hierarchy.clusters0.l1d_cache.tags.occupanciesTaskId::1024          195                       # Occupied blocks per task id (Count)
board.cache_hierarchy.clusters0.l1d_cache.tags.ageTaskId_1022::0           19                       # Occupied blocks per task id, per block age (Count)
board.cache_hierarchy.clusters0.l1d_cache.tags.ageTaskId_1022::1           88                       # Occupied blocks per task id, per block age (Count)
board.cache_hierarchy.clusters0.l1d_cache.tags.ageTaskId_1022::2          191                       # Occupied blocks per task id, per block age (Count)
board.cache_hierarchy.clusters0.l1d_cache.tags.ageTaskId_1022::3           16                       # Occupied blocks per task id, per block age (Count)
board.cache_hierarchy.clusters0.l1d_cache.tags.ageTaskId_1024::0            7                       # Occupied blocks per task id, per block age (Count)
board.cache_hierarchy.clusters0.l1d_cache.tags.ageTaskId_1024::1           19                       # Occupied blocks per task id, per block age (Count)
board.cache_hierarchy.clusters0.l1d_cache.tags.ageTaskId_1024::2          127                       # Occupied blocks per task id, per block age (Count)
board.cache_hierarchy.clusters0.l1d_cache.tags.ageTaskId_1024::3           42                       # Occupied blocks per task id, per block age (Count)
board.cache_hierarchy.clusters0.l1d_cache.tags.ratioOccsTaskId::1022     0.613281                       # Ratio of occupied blocks and all blocks, per task id (Ratio)
board.cache_hierarchy.clusters0.l1d_cache.tags.ratioOccsTaskId::1024     0.380859                       # Ratio of occupied blocks and all blocks, per task id (Ratio)
board.cache_hierarchy.clusters0.l1d_cache.tags.tagAccesses     11060498                       # Number of tag accesses (Count)
board.cache_hierarchy.clusters0.l1d_cache.tags.dataAccesses     11060498                       # Number of data accesses (Count)
board.cache_hierarchy.clusters0.l1d_cache.tags.power_state.pwrStateResidencyTicks::UNDEFINED  11828963862                       # Cumulative time (in ticks) in various power states (Tick)
board.cache_hierarchy.clusters0.l1i_cache.demandHits::processor.cores0.core.inst       613622                       # number of demand (read+write) hits (Count)
board.cache_hierarchy.clusters0.l1i_cache.demandHits::total       613622                       # number of demand (read+write) hits (Count)
board.cache_hierarchy.clusters0.l1i_cache.overallHits::processor.cores0.core.inst       613622                       # number of overall hits (Count)
board.cache_hierarchy.clusters0.l1i_cache.overallHits::total       613622                       # number of overall hits (Count)
board.cache_hierarchy.clusters0.l1i_cache.demandMisses::processor.cores0.core.inst           56                       # number of demand (read+write) misses (Count)
board.cache_hierarchy.clusters0.l1i_cache.demandMisses::total           56                       # number of demand (read+write) misses (Count)
board.cache_hierarchy.clusters0.l1i_cache.overallMisses::processor.cores0.core.inst           56                       # number of overall misses (Count)
board.cache_hierarchy.clusters0.l1i_cache.overallMisses::total           56                       # number of overall misses (Count)
board.cache_hierarchy.clusters0.l1i_cache.demandMissLatency::processor.cores0.core.inst      1741257                       # number of demand (read+write) miss ticks (Tick)
board.cache_hierarchy.clusters0.l1i_cache.demandMissLatency::total      1741257                       # number of demand (read+write) miss ticks (Tick)
board.cache_hierarchy.clusters0.l1i_cache.overallMissLatency::processor.cores0.core.inst      1741257                       # number of overall miss ticks (Tick)
board.cache_hierarchy.clusters0.l1i_cache.overallMissLatency::total      1741257                       # number of overall miss ticks (Tick)
board.cache_hierarchy.clusters0.l1i_cache.demandAccesses::processor.cores0.core.inst       613678                       # number of demand (read+write) accesses (Count)
board.cache_hierarchy.clusters0.l1i_cache.demandAccesses::total       613678                       # number of demand (read+write) accesses (Count)
board.cache_hierarchy.clusters0.l1i_cache.overallAccesses::processor.cores0.core.inst       613678                       # number of overall (read+write) accesses (Count)
board.cache_hierarchy.clusters0.l1i_cache.overallAccesses::total       613678                       # number of overall (read+write) accesses (Count)
board.cache_hierarchy.clusters0.l1i_cache.demandMissRate::processor.cores0.core.inst     0.000091                       # miss rate for demand accesses (Ratio)
board.cache_hierarchy.clusters0.l1i_cache.demandMissRate::total     0.000091                       # miss rate for demand accesses (Ratio)
board.cache_hierarchy.clusters0.l1i_cache.overallMissRate::processor.cores0.core.inst     0.000091                       # miss rate for overall accesses (Ratio)
board.cache_hierarchy.clusters0.l1i_cache.overallMissRate::total     0.000091                       # miss rate for overall accesses (Ratio)
board.cache_hierarchy.clusters0.l1i_cache.demandAvgMissLatency::processor.cores0.core.inst 31093.875000                       # average overall miss latency in ticks ((Tick/Count))
board.cache_hierarchy.clusters0.l1i_cache.demandAvgMissLatency::total 31093.875000                       # average overall miss latency in ticks ((Tick/Count))
board.cache_hierarchy.clusters0.l1i_cache.overallAvgMissLatency::processor.cores0.core.inst 31093.875000                       # average overall miss latency ((Tick/Count))
board.cache_hierarchy.clusters0.l1i_cache.overallAvgMissLatency::total 31093.875000                       # average overall miss latency ((Tick/Count))
board.cache_hierarchy.clusters0.l1i_cache.blockedCycles::no_mshrs            0                       # number of cycles access was blocked (Cycle)
board.cache_hierarchy.clusters0.l1i_cache.blockedCycles::no_wbuffers            0                       # number of cycles access was blocked (Cycle)
board.cache_hierarchy.clusters0.l1i_cache.blockedCycles::no_targets            0                       # number of cycles access was blocked (Cycle)
board.cache_hierarchy.clusters0.l1i_cache.blockedCauses::no_mshrs            0                       # number of times access was blocked (Count)
board.cache_hierarchy.clusters0.l1i_cache.blockedCauses::no_wbuffers            0                       # number of times access was blocked (Count)
board.cache_hierarchy.clusters0.l1i_cache.blockedCauses::no_targets            0                       # number of times access was blocked (Count)
board.cache_hierarchy.clusters0.l1i_cache.avgBlocked::no_mshrs          nan                       # average number of cycles each access was blocked ((Cycle/Count))
board.cache_hierarchy.clusters0.l1i_cache.avgBlocked::no_wbuffers          nan                       # average number of cycles each access was blocked ((Cycle/Count))
board.cache_hierarchy.clusters0.l1i_cache.avgBlocked::no_targets          nan                       # average number of cycles each access was blocked ((Cycle/Count))
board.cache_hierarchy.clusters0.l1i_cache.writebacks::writebacks           57                       # number of writebacks (Count)
board.cache_hierarchy.clusters0.l1i_cache.writebacks::total           57                       # number of writebacks (Count)
board.cache_hierarchy.clusters0.l1i_cache.demandMshrMisses::processor.cores0.core.inst           56                       # number of demand (read+write) MSHR misses (Count)
board.cache_hierarchy.clusters0.l1i_cache.demandMshrMisses::total           56                       # number of demand (read+write) MSHR misses (Count)
board.cache_hierarchy.clusters0.l1i_cache.overallMshrMisses::processor.cores0.core.inst           56                       # number of overall MSHR misses (Count)
board.cache_hierarchy.clusters0.l1i_cache.overallMshrMisses::total           56                       # number of overall MSHR misses (Count)
board.cache_hierarchy.clusters0.l1i_cache.demandMshrMissLatency::processor.cores0.core.inst      1722276                       # number of demand (read+write) MSHR miss ticks (Tick)
board.cache_hierarchy.clusters0.l1i_cache.demandMshrMissLatency::total      1722276                       # number of demand (read+write) MSHR miss ticks (Tick)
board.cache_hierarchy.clusters0.l1i_cache.overallMshrMissLatency::processor.cores0.core.inst      1722276                       # number of overall MSHR miss ticks (Tick)
board.cache_hierarchy.clusters0.l1i_cache.overallMshrMissLatency::total      1722276                       # number of overall MSHR miss ticks (Tick)
board.cache_hierarchy.clusters0.l1i_cache.demandMshrMissRate::processor.cores0.core.inst     0.000091                       # mshr miss ratio for demand accesses (Ratio)
board.cache_hierarchy.clusters0.l1i_cache.demandMshrMissRate::total     0.000091                       # mshr miss ratio for demand accesses (Ratio)
board.cache_hierarchy.clusters0.l1i_cache.overallMshrMissRate::processor.cores0.core.inst     0.000091                       # mshr miss ratio for overall accesses (Ratio)
board.cache_hierarchy.clusters0.l1i_cache.overallMshrMissRate::total     0.000091                       # mshr miss ratio for overall accesses (Ratio)
board.cache_hierarchy.clusters0.l1i_cache.demandAvgMshrMissLatency::processor.cores0.core.inst 30754.928571                       # average overall mshr miss latency ((Tick/Count))
board.cache_hierarchy.clusters0.l1i_cache.demandAvgMshrMissLatency::total 30754.928571                       # average overall mshr miss latency ((Tick/Count))
board.cache_hierarchy.clusters0.l1i_cache.overallAvgMshrMissLatency::processor.cores0.core.inst 30754.928571                       # average overall mshr miss latency ((Tick/Count))
board.cache_hierarchy.clusters0.l1i_cache.overallAvgMshrMissLatency::total 30754.928571                       # average overall mshr miss latency ((Tick/Count))
board.cache_hierarchy.clusters0.l1i_cache.replacements           57                       # number of replacements (Count)
board.cache_hierarchy.clusters0.l1i_cache.ReadReq.hits::processor.cores0.core.inst       613622                       # number of ReadReq hits (Count)
board.cache_hierarchy.clusters0.l1i_cache.ReadReq.hits::total       613622                       # number of ReadReq hits (Count)
board.cache_hierarchy.clusters0.l1i_cache.ReadReq.misses::processor.cores0.core.inst           56                       # number of ReadReq misses (Count)
board.cache_hierarchy.clusters0.l1i_cache.ReadReq.misses::total           56                       # number of ReadReq misses (Count)
board.cache_hierarchy.clusters0.l1i_cache.ReadReq.missLatency::processor.cores0.core.inst      1741257                       # number of ReadReq miss ticks (Tick)
board.cache_hierarchy.clusters0.l1i_cache.ReadReq.missLatency::total      1741257                       # number of ReadReq miss ticks (Tick)
board.cache_hierarchy.clusters0.l1i_cache.ReadReq.accesses::processor.cores0.core.inst       613678                       # number of ReadReq accesses(hits+misses) (Count)
board.cache_hierarchy.clusters0.l1i_cache.ReadReq.accesses::total       613678                       # number of ReadReq accesses(hits+misses) (Count)
board.cache_hierarchy.clusters0.l1i_cache.ReadReq.missRate::processor.cores0.core.inst     0.000091                       # miss rate for ReadReq accesses (Ratio)
board.cache_hierarchy.clusters0.l1i_cache.ReadReq.missRate::total     0.000091                       # miss rate for ReadReq accesses (Ratio)
board.cache_hierarchy.clusters0.l1i_cache.ReadReq.avgMissLatency::processor.cores0.core.inst 31093.875000                       # average ReadReq miss latency ((Tick/Count))
board.cache_hierarchy.clusters0.l1i_cache.ReadReq.avgMissLatency::total 31093.875000                       # average ReadReq miss latency ((Tick/Count))
board.cache_hierarchy.clusters0.l1i_cache.ReadReq.mshrMisses::processor.cores0.core.inst           56                       # number of ReadReq MSHR misses (Count)
board.cache_hierarchy.clusters0.l1i_cache.ReadReq.mshrMisses::total           56                       # number of ReadReq MSHR misses (Count)
board.cache_hierarchy.clusters0.l1i_cache.ReadReq.mshrMissLatency::processor.cores0.core.inst      1722276                       # number of ReadReq MSHR miss ticks (Tick)
board.cache_hierarchy.clusters0.l1i_cache.ReadReq.mshrMissLatency::total      1722276                       # number of ReadReq MSHR miss ticks (Tick)
board.cache_hierarchy.clusters0.l1i_cache.ReadReq.mshrMissRate::processor.cores0.core.inst     0.000091                       # mshr miss rate for ReadReq accesses (Ratio)
board.cache_hierarchy.clusters0.l1i_cache.ReadReq.mshrMissRate::total     0.000091                       # mshr miss rate for ReadReq accesses (Ratio)
board.cache_hierarchy.clusters0.l1i_cache.ReadReq.avgMshrMissLatency::processor.cores0.core.inst 30754.928571                       # average ReadReq mshr miss latency ((Tick/Count))
board.cache_hierarchy.clusters0.l1i_cache.ReadReq.avgMshrMissLatency::total 30754.928571                       # average ReadReq mshr miss latency ((Tick/Count))
board.cache_hierarchy.clusters0.l1i_cache.power_state.pwrStateResidencyTicks::UNDEFINED  11828963862                       # Cumulative time (in ticks) in various power states (Tick)
board.cache_hierarchy.clusters0.l1i_cache.prefetcher.demandMshrMisses           56                       # demands not covered by prefetchs (Count)
board.cache_hierarchy.clusters0.l1i_cache.prefetcher.pfIssued            0                       # number of hwpf issued (Count)
board.cache_hierarchy.clusters0.l1i_cache.prefetcher.pfUseful            0                       # number of useful prefetch (Count)
board.cache_hierarchy.clusters0.l1i_cache.prefetcher.pfUsefulButMiss            0                       # number of hit on prefetch but cache block is not in an usable state (Count)
board.cache_hierarchy.clusters0.l1i_cache.prefetcher.accuracy          nan                       # accuracy of the prefetcher (Count)
board.cache_hierarchy.clusters0.l1i_cache.prefetcher.coverage            0                       # coverage brought by this prefetcher (Count)
board.cache_hierarchy.clusters0.l1i_cache.prefetcher.pfHitInCache            0                       # number of prefetches hitting in cache (Count)
board.cache_hierarchy.clusters0.l1i_cache.prefetcher.pfHitInMSHR            0                       # number of prefetches hitting in a MSHR (Count)
board.cache_hierarchy.clusters0.l1i_cache.prefetcher.pfHitInWB            0                       # number of prefetches hit in the Write Buffer (Count)
board.cache_hierarchy.clusters0.l1i_cache.prefetcher.pfLate            0                       # number of late prefetches (hitting in cache, MSHR or WB) (Count)
board.cache_hierarchy.clusters0.l1i_cache.prefetcher.pfIdentified            0                       # number of prefetch candidates identified (Count)
board.cache_hierarchy.clusters0.l1i_cache.prefetcher.pfBufferHit            0                       # number of redundant prefetches already in prefetch queue (Count)
board.cache_hierarchy.clusters0.l1i_cache.prefetcher.pfInCache            0                       # number of redundant prefetches already in cache/mshr dropped (Count)
board.cache_hierarchy.clusters0.l1i_cache.prefetcher.pfRemovedDemand            0                       # number of prefetches dropped due to a demand for the same address (Count)
board.cache_hierarchy.clusters0.l1i_cache.prefetcher.pfRemovedFull            0                       # number of prefetches dropped due to prefetch queue size (Count)
board.cache_hierarchy.clusters0.l1i_cache.prefetcher.pfSpanPage            0                       # number of prefetches that crossed the page (Count)
board.cache_hierarchy.clusters0.l1i_cache.prefetcher.pfUsefulSpanPage            0                       # number of prefetches that is useful and crossed the page (Count)
board.cache_hierarchy.clusters0.l1i_cache.prefetcher.power_state.pwrStateResidencyTicks::UNDEFINED  11828963862                       # Cumulative time (in ticks) in various power states (Tick)
board.cache_hierarchy.clusters0.l1i_cache.tags.tagsInUse          512                       # Average ticks per tags in use ((Tick/Count))
board.cache_hierarchy.clusters0.l1i_cache.tags.totalRefs         2971                       # Total number of references to valid blocks. (Count)
board.cache_hierarchy.clusters0.l1i_cache.tags.sampledRefs           57                       # Sample count of references to valid blocks. (Count)
board.cache_hierarchy.clusters0.l1i_cache.tags.avgRefs    52.122807                       # Average number of references to valid blocks. ((Count/Count))
board.cache_hierarchy.clusters0.l1i_cache.tags.warmupTick            0                       # The tick when the warmup percentage was hit. (Tick)
board.cache_hierarchy.clusters0.l1i_cache.tags.occupancies::processor.cores0.core.inst          512                       # Average occupied blocks per tick, per requestor ((Count/Tick))
board.cache_hierarchy.clusters0.l1i_cache.tags.avgOccs::processor.cores0.core.inst            1                       # Average percentage of cache occupancy ((Ratio/Tick))
board.cache_hierarchy.clusters0.l1i_cache.tags.avgOccs::total            1                       # Average percentage of cache occupancy ((Ratio/Tick))
board.cache_hierarchy.clusters0.l1i_cache.tags.occupanciesTaskId::1024          512                       # Occupied blocks per task id (Count)
board.cache_hierarchy.clusters0.l1i_cache.tags.ageTaskId_1024::3          114                       # Occupied blocks per task id, per block age (Count)
board.cache_hierarchy.clusters0.l1i_cache.tags.ageTaskId_1024::4          398                       # Occupied blocks per task id, per block age (Count)
board.cache_hierarchy.clusters0.l1i_cache.tags.ratioOccsTaskId::1024            1                       # Ratio of occupied blocks and all blocks, per task id (Ratio)
board.cache_hierarchy.clusters0.l1i_cache.tags.tagAccesses      4909481                       # Number of tag accesses (Count)
board.cache_hierarchy.clusters0.l1i_cache.tags.dataAccesses      4909481                       # Number of data accesses (Count)
board.cache_hierarchy.clusters0.l1i_cache.tags.power_state.pwrStateResidencyTicks::UNDEFINED  11828963862                       # Cumulative time (in ticks) in various power states (Tick)
board.cache_hierarchy.clusters0.l2_bus.transDist::ReadResp        60285                       # Transaction distribution (Count)
board.cache_hierarchy.clusters0.l2_bus.transDist::WritebackDirty         2830                       # Transaction distribution (Count)
board.cache_hierarchy.clusters0.l2_bus.transDist::WritebackClean         1060                       # Transaction distribution (Count)
board.cache_hierarchy.clusters0.l2_bus.transDist::CleanEvict         1024                       # Transaction distribution (Count)
board.cache_hierarchy.clusters0.l2_bus.transDist::HardPFReq         1023                       # Transaction distribution (Count)
board.cache_hierarchy.clusters0.l2_bus.transDist::UpgradeReq        62622                       # Transaction distribution (Count)
board.cache_hierarchy.clusters0.l2_bus.transDist::SCUpgradeReq          199                       # Transaction distribution (Count)
board.cache_hierarchy.clusters0.l2_bus.transDist::UpgradeResp        35865                       # Transaction distribution (Count)
board.cache_hierarchy.clusters0.l2_bus.transDist::SCUpgradeFailReq            1                       # Transaction distribution (Count)
board.cache_hierarchy.clusters0.l2_bus.transDist::UpgradeFailResp            1                       # Transaction distribution (Count)
board.cache_hierarchy.clusters0.l2_bus.transDist::ReadExReq        29962                       # Transaction distribution (Count)
board.cache_hierarchy.clusters0.l2_bus.transDist::ReadExResp        36046                       # Transaction distribution (Count)
board.cache_hierarchy.clusters0.l2_bus.transDist::ReadSharedReq        60345                       # Transaction distribution (Count)
board.cache_hierarchy.clusters0.l2_bus.pktCount_board.cache_hierarchy.clusters0.l1d_cache.mem_side_port::board.cache_hierarchy.clusters0.l2_cache.cpu_side_port       214249                       # Packet count per connected requestor and responder (Count)
board.cache_hierarchy.clusters0.l2_bus.pktCount_board.cache_hierarchy.clusters0.l1i_cache.mem_side_port::board.cache_hierarchy.clusters0.l2_cache.cpu_side_port          170                       # Packet count per connected requestor and responder (Count)
board.cache_hierarchy.clusters0.l2_bus.pktCount::total       214419                       # Packet count per connected requestor and responder (Count)
board.cache_hierarchy.clusters0.l2_bus.pktSize_board.cache_hierarchy.clusters0.l1d_cache.mem_side_port::board.cache_hierarchy.clusters0.l2_cache.cpu_side_port      6399808                       # Cumulative packet size per connected requestor and responder (Byte)
board.cache_hierarchy.clusters0.l2_bus.pktSize_board.cache_hierarchy.clusters0.l1i_cache.mem_side_port::board.cache_hierarchy.clusters0.l2_cache.cpu_side_port         7296                       # Cumulative packet size per connected requestor and responder (Byte)
board.cache_hierarchy.clusters0.l2_bus.pktSize::total      6407104                       # Cumulative packet size per connected requestor and responder (Byte)
board.cache_hierarchy.clusters0.l2_bus.snoops       130597                       # Total snoops (Count)
board.cache_hierarchy.clusters0.l2_bus.snoopTraffic      3009024                       # Total snoop traffic (Byte)
board.cache_hierarchy.clusters0.l2_bus.snoopFanout::samples       155287                       # Request fanout histogram (Count)
board.cache_hierarchy.clusters0.l2_bus.snoopFanout::mean     0.481914                       # Request fanout histogram (Count)
board.cache_hierarchy.clusters0.l2_bus.snoopFanout::stdev     0.499674                       # Request fanout histogram (Count)
board.cache_hierarchy.clusters0.l2_bus.snoopFanout::underflows            0      0.00%      0.00% # Request fanout histogram (Count)
board.cache_hierarchy.clusters0.l2_bus.snoopFanout::0        80452     51.81%     51.81% # Request fanout histogram (Count)
board.cache_hierarchy.clusters0.l2_bus.snoopFanout::1        74835     48.19%    100.00% # Request fanout histogram (Count)
board.cache_hierarchy.clusters0.l2_bus.snoopFanout::2            0      0.00%    100.00% # Request fanout histogram (Count)
board.cache_hierarchy.clusters0.l2_bus.snoopFanout::3            0      0.00%    100.00% # Request fanout histogram (Count)
board.cache_hierarchy.clusters0.l2_bus.snoopFanout::4            0      0.00%    100.00% # Request fanout histogram (Count)
board.cache_hierarchy.clusters0.l2_bus.snoopFanout::overflows            0      0.00%    100.00% # Request fanout histogram (Count)
board.cache_hierarchy.clusters0.l2_bus.snoopFanout::min_value            0                       # Request fanout histogram (Count)
board.cache_hierarchy.clusters0.l2_bus.snoopFanout::max_value            1                       # Request fanout histogram (Count)
board.cache_hierarchy.clusters0.l2_bus.snoopFanout::total       155287                       # Request fanout histogram (Count)
board.cache_hierarchy.clusters0.l2_bus.power_state.pwrStateResidencyTicks::UNDEFINED  11828963862                       # Cumulative time (in ticks) in various power states (Tick)
board.cache_hierarchy.clusters0.l2_bus.reqLayer0.occupancy     34622905                       # Layer occupancy (ticks) (Tick)
board.cache_hierarchy.clusters0.l2_bus.reqLayer0.utilization          0.0                       # Layer utilization (Ratio)
board.cache_hierarchy.clusters0.l2_bus.respLayer0.occupancy     58983291                       # Layer occupancy (ticks) (Tick)
board.cache_hierarchy.clusters0.l2_bus.respLayer0.utilization          0.0                       # Layer utilization (Ratio)
board.cache_hierarchy.clusters0.l2_bus.respLayer1.occupancy        56943                       # Layer occupancy (ticks) (Tick)
board.cache_hierarchy.clusters0.l2_bus.respLayer1.utilization          0.0                       # Layer utilization (Ratio)
board.cache_hierarchy.clusters0.l2_bus.snoopLayer0.occupancy     51443887                       # Layer occupancy (ticks) (Tick)
board.cache_hierarchy.clusters0.l2_bus.snoopLayer0.utilization          0.0                       # Layer utilization (Ratio)
board.cache_hierarchy.clusters0.l2_bus.snoop_filter.totRequests        82222                       # Total number of requests made to the snoop filter. (Count)
board.cache_hierarchy.clusters0.l2_bus.snoop_filter.hitSingleRequests        45618                       # Number of requests hitting in the snoop filter with a single holder of the requested data. (Count)
board.cache_hierarchy.clusters0.l2_bus.snoop_filter.hitMultiRequests            0                       # Number of requests hitting in the snoop filter with multiple (>1) holders of the requested data. (Count)
board.cache_hierarchy.clusters0.l2_bus.snoop_filter.totSnoops        74835                       # Total number of snoops made to the snoop filter. (Count)
board.cache_hierarchy.clusters0.l2_bus.snoop_filter.hitSingleSnoops        74835                       # Number of snoops hitting in the snoop filter with a single holder of the requested data. (Count)
board.cache_hierarchy.clusters0.l2_bus.snoop_filter.hitMultiSnoops            0                       # Number of snoops hitting in the snoop filter with multiple (>1) holders of the requested data. (Count)
board.cache_hierarchy.clusters0.l2_cache.demandHits::cache_hierarchy.clusters0.l1d_cache.prefetcher         1066                       # number of demand (read+write) hits (Count)
board.cache_hierarchy.clusters0.l2_cache.demandHits::processor.cores0.core.inst           24                       # number of demand (read+write) hits (Count)
board.cache_hierarchy.clusters0.l2_cache.demandHits::processor.cores0.core.data         2053                       # number of demand (read+write) hits (Count)
board.cache_hierarchy.clusters0.l2_cache.demandHits::total         3143                       # number of demand (read+write) hits (Count)
board.cache_hierarchy.clusters0.l2_cache.overallHits::cache_hierarchy.clusters0.l1d_cache.prefetcher         1066                       # number of overall hits (Count)
board.cache_hierarchy.clusters0.l2_cache.overallHits::processor.cores0.core.inst           24                       # number of overall hits (Count)
board.cache_hierarchy.clusters0.l2_cache.overallHits::processor.cores0.core.data         2053                       # number of overall hits (Count)
board.cache_hierarchy.clusters0.l2_cache.overallHits::total         3143                       # number of overall hits (Count)
board.cache_hierarchy.clusters0.l2_cache.demandMisses::cache_hierarchy.clusters0.l1d_cache.prefetcher          211                       # number of demand (read+write) misses (Count)
board.cache_hierarchy.clusters0.l2_cache.demandMisses::processor.cores0.core.inst           32                       # number of demand (read+write) misses (Count)
board.cache_hierarchy.clusters0.l2_cache.demandMisses::processor.cores0.core.data        39953                       # number of demand (read+write) misses (Count)
board.cache_hierarchy.clusters0.l2_cache.demandMisses::total        40196                       # number of demand (read+write) misses (Count)
board.cache_hierarchy.clusters0.l2_cache.overallMisses::cache_hierarchy.clusters0.l1d_cache.prefetcher          211                       # number of overall misses (Count)
board.cache_hierarchy.clusters0.l2_cache.overallMisses::processor.cores0.core.inst           32                       # number of overall misses (Count)
board.cache_hierarchy.clusters0.l2_cache.overallMisses::processor.cores0.core.data        39953                       # number of overall misses (Count)
board.cache_hierarchy.clusters0.l2_cache.overallMisses::total        40196                       # number of overall misses (Count)
board.cache_hierarchy.clusters0.l2_cache.demandMissLatency::cache_hierarchy.clusters0.l1d_cache.prefetcher      5942385                       # number of demand (read+write) miss ticks (Tick)
board.cache_hierarchy.clusters0.l2_cache.demandMissLatency::processor.cores0.core.inst      1596069                       # number of demand (read+write) miss ticks (Tick)
board.cache_hierarchy.clusters0.l2_cache.demandMissLatency::processor.cores0.core.data    518327370                       # number of demand (read+write) miss ticks (Tick)
board.cache_hierarchy.clusters0.l2_cache.demandMissLatency::total    525865824                       # number of demand (read+write) miss ticks (Tick)
board.cache_hierarchy.clusters0.l2_cache.overallMissLatency::cache_hierarchy.clusters0.l1d_cache.prefetcher      5942385                       # number of overall miss ticks (Tick)
board.cache_hierarchy.clusters0.l2_cache.overallMissLatency::processor.cores0.core.inst      1596069                       # number of overall miss ticks (Tick)
board.cache_hierarchy.clusters0.l2_cache.overallMissLatency::processor.cores0.core.data    518327370                       # number of overall miss ticks (Tick)
board.cache_hierarchy.clusters0.l2_cache.overallMissLatency::total    525865824                       # number of overall miss ticks (Tick)
board.cache_hierarchy.clusters0.l2_cache.demandAccesses::cache_hierarchy.clusters0.l1d_cache.prefetcher         1277                       # number of demand (read+write) accesses (Count)
board.cache_hierarchy.clusters0.l2_cache.demandAccesses::processor.cores0.core.inst           56                       # number of demand (read+write) accesses (Count)
board.cache_hierarchy.clusters0.l2_cache.demandAccesses::processor.cores0.core.data        42006                       # number of demand (read+write) accesses (Count)
board.cache_hierarchy.clusters0.l2_cache.demandAccesses::total        43339                       # number of demand (read+write) accesses (Count)
board.cache_hierarchy.clusters0.l2_cache.overallAccesses::cache_hierarchy.clusters0.l1d_cache.prefetcher         1277                       # number of overall (read+write) accesses (Count)
board.cache_hierarchy.clusters0.l2_cache.overallAccesses::processor.cores0.core.inst           56                       # number of overall (read+write) accesses (Count)
board.cache_hierarchy.clusters0.l2_cache.overallAccesses::processor.cores0.core.data        42006                       # number of overall (read+write) accesses (Count)
board.cache_hierarchy.clusters0.l2_cache.overallAccesses::total        43339                       # number of overall (read+write) accesses (Count)
board.cache_hierarchy.clusters0.l2_cache.demandMissRate::cache_hierarchy.clusters0.l1d_cache.prefetcher     0.165231                       # miss rate for demand accesses (Ratio)
board.cache_hierarchy.clusters0.l2_cache.demandMissRate::processor.cores0.core.inst     0.571429                       # miss rate for demand accesses (Ratio)
board.cache_hierarchy.clusters0.l2_cache.demandMissRate::processor.cores0.core.data     0.951126                       # miss rate for demand accesses (Ratio)
board.cache_hierarchy.clusters0.l2_cache.demandMissRate::total     0.927479                       # miss rate for demand accesses (Ratio)
board.cache_hierarchy.clusters0.l2_cache.overallMissRate::cache_hierarchy.clusters0.l1d_cache.prefetcher     0.165231                       # miss rate for overall accesses (Ratio)
board.cache_hierarchy.clusters0.l2_cache.overallMissRate::processor.cores0.core.inst     0.571429                       # miss rate for overall accesses (Ratio)
board.cache_hierarchy.clusters0.l2_cache.overallMissRate::processor.cores0.core.data     0.951126                       # miss rate for overall accesses (Ratio)
board.cache_hierarchy.clusters0.l2_cache.overallMissRate::total     0.927479                       # miss rate for overall accesses (Ratio)
board.cache_hierarchy.clusters0.l2_cache.demandAvgMissLatency::cache_hierarchy.clusters0.l1d_cache.prefetcher 28162.962085                       # average overall miss latency in ticks ((Tick/Count))
board.cache_hierarchy.clusters0.l2_cache.demandAvgMissLatency::processor.cores0.core.inst 49877.156250                       # average overall miss latency in ticks ((Tick/Count))
board.cache_hierarchy.clusters0.l2_cache.demandAvgMissLatency::processor.cores0.core.data 12973.428028                       # average overall miss latency in ticks ((Tick/Count))
board.cache_hierarchy.clusters0.l2_cache.demandAvgMissLatency::total 13082.541148                       # average overall miss latency in ticks ((Tick/Count))
board.cache_hierarchy.clusters0.l2_cache.overallAvgMissLatency::cache_hierarchy.clusters0.l1d_cache.prefetcher 28162.962085                       # average overall miss latency ((Tick/Count))
board.cache_hierarchy.clusters0.l2_cache.overallAvgMissLatency::processor.cores0.core.inst 49877.156250                       # average overall miss latency ((Tick/Count))
board.cache_hierarchy.clusters0.l2_cache.overallAvgMissLatency::processor.cores0.core.data 12973.428028                       # average overall miss latency ((Tick/Count))
board.cache_hierarchy.clusters0.l2_cache.overallAvgMissLatency::total 13082.541148                       # average overall miss latency ((Tick/Count))
board.cache_hierarchy.clusters0.l2_cache.blockedCycles::no_mshrs            0                       # number of cycles access was blocked (Cycle)
board.cache_hierarchy.clusters0.l2_cache.blockedCycles::no_wbuffers            0                       # number of cycles access was blocked (Cycle)
board.cache_hierarchy.clusters0.l2_cache.blockedCycles::no_targets            0                       # number of cycles access was blocked (Cycle)
board.cache_hierarchy.clusters0.l2_cache.blockedCauses::no_mshrs            0                       # number of times access was blocked (Count)
board.cache_hierarchy.clusters0.l2_cache.blockedCauses::no_wbuffers            0                       # number of times access was blocked (Count)
board.cache_hierarchy.clusters0.l2_cache.blockedCauses::no_targets            0                       # number of times access was blocked (Count)
board.cache_hierarchy.clusters0.l2_cache.avgBlocked::no_mshrs          nan                       # average number of cycles each access was blocked ((Cycle/Count))
board.cache_hierarchy.clusters0.l2_cache.avgBlocked::no_wbuffers          nan                       # average number of cycles each access was blocked ((Cycle/Count))
board.cache_hierarchy.clusters0.l2_cache.avgBlocked::no_targets          nan                       # average number of cycles each access was blocked ((Cycle/Count))
board.cache_hierarchy.clusters0.l2_cache.writebacks::writebacks          111                       # number of writebacks (Count)
board.cache_hierarchy.clusters0.l2_cache.writebacks::total          111                       # number of writebacks (Count)
board.cache_hierarchy.clusters0.l2_cache.demandMshrHits::cache_hierarchy.clusters0.l1d_cache.prefetcher          107                       # number of demand (read+write) MSHR hits (Count)
board.cache_hierarchy.clusters0.l2_cache.demandMshrHits::total          107                       # number of demand (read+write) MSHR hits (Count)
board.cache_hierarchy.clusters0.l2_cache.overallMshrHits::cache_hierarchy.clusters0.l1d_cache.prefetcher          107                       # number of overall MSHR hits (Count)
board.cache_hierarchy.clusters0.l2_cache.overallMshrHits::total          107                       # number of overall MSHR hits (Count)
board.cache_hierarchy.clusters0.l2_cache.demandMshrMisses::cache_hierarchy.clusters0.l1d_cache.prefetcher          104                       # number of demand (read+write) MSHR misses (Count)
board.cache_hierarchy.clusters0.l2_cache.demandMshrMisses::processor.cores0.core.inst           32                       # number of demand (read+write) MSHR misses (Count)
board.cache_hierarchy.clusters0.l2_cache.demandMshrMisses::processor.cores0.core.data        39953                       # number of demand (read+write) MSHR misses (Count)
board.cache_hierarchy.clusters0.l2_cache.demandMshrMisses::total        40089                       # number of demand (read+write) MSHR misses (Count)
board.cache_hierarchy.clusters0.l2_cache.overallMshrMisses::cache_hierarchy.clusters0.l1d_cache.prefetcher          104                       # number of overall MSHR misses (Count)
board.cache_hierarchy.clusters0.l2_cache.overallMshrMisses::cache_hierarchy.clusters0.l2_cache.prefetcher          734                       # number of overall MSHR misses (Count)
board.cache_hierarchy.clusters0.l2_cache.overallMshrMisses::processor.cores0.core.inst           32                       # number of overall MSHR misses (Count)
board.cache_hierarchy.clusters0.l2_cache.overallMshrMisses::processor.cores0.core.data        39953                       # number of overall MSHR misses (Count)
board.cache_hierarchy.clusters0.l2_cache.overallMshrMisses::total        40823                       # number of overall MSHR misses (Count)
board.cache_hierarchy.clusters0.l2_cache.demandMshrMissLatency::cache_hierarchy.clusters0.l1d_cache.prefetcher      2330001                       # number of demand (read+write) MSHR miss ticks (Tick)
board.cache_hierarchy.clusters0.l2_cache.demandMshrMissLatency::processor.cores0.core.inst      1585080                       # number of demand (read+write) MSHR miss ticks (Tick)
board.cache_hierarchy.clusters0.l2_cache.demandMshrMissLatency::processor.cores0.core.data    502996050                       # number of demand (read+write) MSHR miss ticks (Tick)
board.cache_hierarchy.clusters0.l2_cache.demandMshrMissLatency::total    506911131                       # number of demand (read+write) MSHR miss ticks (Tick)
board.cache_hierarchy.clusters0.l2_cache.overallMshrMissLatency::cache_hierarchy.clusters0.l1d_cache.prefetcher      2330001                       # number of overall MSHR miss ticks (Tick)
board.cache_hierarchy.clusters0.l2_cache.overallMshrMissLatency::cache_hierarchy.clusters0.l2_cache.prefetcher     17851031                       # number of overall MSHR miss ticks (Tick)
board.cache_hierarchy.clusters0.l2_cache.overallMshrMissLatency::processor.cores0.core.inst      1585080                       # number of overall MSHR miss ticks (Tick)
board.cache_hierarchy.clusters0.l2_cache.overallMshrMissLatency::processor.cores0.core.data    502996050                       # number of overall MSHR miss ticks (Tick)
board.cache_hierarchy.clusters0.l2_cache.overallMshrMissLatency::total    524762162                       # number of overall MSHR miss ticks (Tick)
board.cache_hierarchy.clusters0.l2_cache.demandMshrMissRate::cache_hierarchy.clusters0.l1d_cache.prefetcher     0.081441                       # mshr miss ratio for demand accesses (Ratio)
board.cache_hierarchy.clusters0.l2_cache.demandMshrMissRate::processor.cores0.core.inst     0.571429                       # mshr miss ratio for demand accesses (Ratio)
board.cache_hierarchy.clusters0.l2_cache.demandMshrMissRate::processor.cores0.core.data     0.951126                       # mshr miss ratio for demand accesses (Ratio)
board.cache_hierarchy.clusters0.l2_cache.demandMshrMissRate::total     0.925010                       # mshr miss ratio for demand accesses (Ratio)
board.cache_hierarchy.clusters0.l2_cache.overallMshrMissRate::cache_hierarchy.clusters0.l1d_cache.prefetcher     0.081441                       # mshr miss ratio for overall accesses (Ratio)
board.cache_hierarchy.clusters0.l2_cache.overallMshrMissRate::cache_hierarchy.clusters0.l2_cache.prefetcher          inf                       # mshr miss ratio for overall accesses (Ratio)
board.cache_hierarchy.clusters0.l2_cache.overallMshrMissRate::processor.cores0.core.inst     0.571429                       # mshr miss ratio for overall accesses (Ratio)
board.cache_hierarchy.clusters0.l2_cache.overallMshrMissRate::processor.cores0.core.data     0.951126                       # mshr miss ratio for overall accesses (Ratio)
board.cache_hierarchy.clusters0.l2_cache.overallMshrMissRate::total     0.941946                       # mshr miss ratio for overall accesses (Ratio)
board.cache_hierarchy.clusters0.l2_cache.demandAvgMshrMissLatency::cache_hierarchy.clusters0.l1d_cache.prefetcher 22403.855769                       # average overall mshr miss latency ((Tick/Count))
board.cache_hierarchy.clusters0.l2_cache.demandAvgMshrMissLatency::processor.cores0.core.inst 49533.750000                       # average overall mshr miss latency ((Tick/Count))
board.cache_hierarchy.clusters0.l2_cache.demandAvgMshrMissLatency::processor.cores0.core.data 12589.694141                       # average overall mshr miss latency ((Tick/Count))
board.cache_hierarchy.clusters0.l2_cache.demandAvgMshrMissLatency::total 12644.643942                       # average overall mshr miss latency ((Tick/Count))
board.cache_hierarchy.clusters0.l2_cache.overallAvgMshrMissLatency::cache_hierarchy.clusters0.l1d_cache.prefetcher 22403.855769                       # average overall mshr miss latency ((Tick/Count))
board.cache_hierarchy.clusters0.l2_cache.overallAvgMshrMissLatency::cache_hierarchy.clusters0.l2_cache.prefetcher 24320.205722                       # average overall mshr miss latency ((Tick/Count))
board.cache_hierarchy.clusters0.l2_cache.overallAvgMshrMissLatency::processor.cores0.core.inst 49533.750000                       # average overall mshr miss latency ((Tick/Count))
board.cache_hierarchy.clusters0.l2_cache.overallAvgMshrMissLatency::processor.cores0.core.data 12589.694141                       # average overall mshr miss latency ((Tick/Count))
board.cache_hierarchy.clusters0.l2_cache.overallAvgMshrMissLatency::total 12854.571247                       # average overall mshr miss latency ((Tick/Count))
board.cache_hierarchy.clusters0.l2_cache.replacements         1135                       # number of replacements (Count)
board.cache_hierarchy.clusters0.l2_cache.HardPFReq.mshrMisses::cache_hierarchy.clusters0.l2_cache.prefetcher          734                       # number of HardPFReq MSHR misses (Count)
board.cache_hierarchy.clusters0.l2_cache.HardPFReq.mshrMisses::total          734                       # number of HardPFReq MSHR misses (Count)
board.cache_hierarchy.clusters0.l2_cache.HardPFReq.mshrMissLatency::cache_hierarchy.clusters0.l2_cache.prefetcher     17851031                       # number of HardPFReq MSHR miss ticks (Tick)
[...]
board.processor.cores1.core.commitStats0.committedInstType::SimdFloatAdd            0      0.00%     46.17% # Class of committed instruction. (Count)
board.processor.cores1.core.commitStats0.committedInstType::SimdFloatAlu            0      0.00%     46.17% # Class of committed instruction. (Count)
board.processor.cores1.core.commitStats0.committedInstType::SimdFloatCmp            0      0.00%     46.17% # Class of committed instruction. (Count)
board.processor.cores1.core.commitStats0.committedInstType::SimdFloatCvt            0      0.00%     46.17% # Class of committed instruction. (Count)
board.processor.cores1.core.commitStats0.committedInstType::SimdFloatDiv            0      0.00%     46.17% # Class of committed instruction. (Count)
board.processor.cores1.core.commitStats0.committedInstType::SimdFloatMisc            0      0.00%     46.17% # Class of committed instruction. (Count)
board.processor.cores1.core.commitStats0.committedInstType::SimdFloatMult            0      0.00%     46.17% # Class of committed instruction. (Count)
board.processor.cores1.core.commitStats0.committedInstType::SimdFloatMultAcc            0      0.00%     46.17% # Class of committed instruction. (Count)
board.processor.cores1.core.commitStats0.committedInstType::SimdFloatMatMultAcc            0      0.00%     46.17% # Class of committed instruction. (Count)
board.processor.cores1.core.commitStats0.committedInstType::SimdFloatSqrt            0      0.00%     46.17% # Class of committed instruction. (Count)
board.processor.cores1.core.commitStats0.committedInstType::SimdReduceAdd            0      0.00%     46.17% # Class of committed instruction. (Count)
board.processor.cores1.core.commitStats0.committedInstType::SimdReduceAlu            0      0.00%     46.17% # Class of committed instruction. (Count)
board.processor.cores1.core.commitStats0.committedInstType::SimdReduceCmp            0      0.00%     46.17% # Class of committed instruction. (Count)
board.processor.cores1.core.commitStats0.committedInstType::SimdFloatReduceAdd            0      0.00%     46.17% # Class of committed instruction. (Count)
board.processor.cores1.core.commitStats0.committedInstType::SimdFloatReduceCmp            0      0.00%     46.17% # Class of committed instruction. (Count)
board.processor.cores1.core.commitStats0.committedInstType::SimdAes            0      0.00%     46.17% # Class of committed instruction. (Count)
board.processor.cores1.core.commitStats0.committedInstType::SimdAesMix            0      0.00%     46.17% # Class of committed instruction. (Count)
board.processor.cores1.core.commitStats0.committedInstType::SimdSha1Hash            0      0.00%     46.17% # Class of committed instruction. (Count)
board.processor.cores1.core.commitStats0.committedInstType::SimdSha1Hash2            0      0.00%     46.17% # Class of committed instruction. (Count)
board.processor.cores1.core.commitStats0.committedInstType::SimdSha256Hash            0      0.00%     46.17% # Class of committed instruction. (Count)
board.processor.cores1.core.commitStats0.committedInstType::SimdSha256Hash2            0      0.00%     46.17% # Class of committed instruction. (Count)
board.processor.cores1.core.commitStats0.committedInstType::SimdShaSigma2            0      0.00%     46.17% # Class of committed instruction. (Count)
board.processor.cores1.core.commitStats0.committedInstType::SimdShaSigma3            0      0.00%     46.17% # Class of committed instruction. (Count)
board.processor.cores1.core.commitStats0.committedInstType::SimdSha3            0      0.00%     46.17% # Class of committed instruction. (Count)
board.processor.cores1.core.commitStats0.committedInstType::SimdSm4e            0      0.00%     46.17% # Class of committed instruction. (Count)
board.processor.cores1.core.commitStats0.committedInstType::SimdCrc            0      0.00%     46.17% # Class of committed instruction. (Count)
board.processor.cores1.core.commitStats0.committedInstType::SimdPredAlu            0      0.00%     46.17% # Class of committed instruction. (Count)
board.processor.cores1.core.commitStats0.committedInstType::SimdDotProd            0      0.00%     46.17% # Class of committed instruction. (Count)
board.processor.cores1.core.commitStats0.committedInstType::Matrix            0      0.00%     46.17% # Class of committed instruction. (Count)
board.processor.cores1.core.commitStats0.committedInstType::MatrixMov            0      0.00%     46.17% # Class of committed instruction. (Count)
board.processor.cores1.core.commitStats0.committedInstType::MatrixOP            0      0.00%     46.17% # Class of committed instruction. (Count)
board.processor.cores1.core.commitStats0.committedInstType::MemRead      1148190     40.64%     86.82% # Class of committed instruction. (Count)
board.processor.cores1.core.commitStats0.committedInstType::MemWrite       116411      4.12%     90.94% # Class of committed instruction. (Count)
board.processor.cores1.core.commitStats0.committedInstType::FloatMemRead       186337      6.60%     97.54% # Class of committed instruction. (Count)
board.processor.cores1.core.commitStats0.committedInstType::FloatMemWrite        69629      2.46%    100.00% # Class of committed instruction. (Count)
board.processor.cores1.core.commitStats0.committedInstType::InstPrefetch            0      0.00%    100.00% # Class of committed instruction. (Count)
board.processor.cores1.core.commitStats0.committedInstType::SimdUnitStrideLoad            0      0.00%    100.00% # Class of committed instruction. (Count)
board.processor.cores1.core.commitStats0.committedInstType::SimdUnitStrideStore            0      0.00%    100.00% # Class of committed instruction. (Count)
board.processor.cores1.core.commitStats0.committedInstType::SimdUnitStrideMaskLoad            0      0.00%    100.00% # Class of committed instruction. (Count)
board.processor.cores1.core.commitStats0.committedInstType::SimdUnitStrideMaskStore            0      0.00%    100.00% # Class of committed instruction. (Count)
board.processor.cores1.core.commitStats0.committedInstType::SimdStridedLoad            0      0.00%    100.00% # Class of committed instruction. (Count)
board.processor.cores1.core.commitStats0.committedInstType::SimdStridedStore            0      0.00%    100.00% # Class of committed instruction. (Count)
board.processor.cores1.core.commitStats0.committedInstType::SimdIndexedLoad            0      0.00%    100.00% # Class of committed instruction. (Count)
board.processor.cores1.core.commitStats0.committedInstType::SimdIndexedStore            0      0.00%    100.00% # Class of committed instruction. (Count)
board.processor.cores1.core.commitStats0.committedInstType::SimdWholeRegisterLoad            0      0.00%    100.00% # Class of committed instruction. (Count)
board.processor.cores1.core.commitStats0.committedInstType::SimdWholeRegisterStore            0      0.00%    100.00% # Class of committed instruction. (Count)
board.processor.cores1.core.commitStats0.committedInstType::SimdUnitStrideFaultOnlyFirstLoad            0      0.00%    100.00% # Class of committed instruction. (Count)
board.processor.cores1.core.commitStats0.committedInstType::SimdUnitStrideSegmentedLoad            0      0.00%    100.00% # Class of committed instruction. (Count)
board.processor.cores1.core.commitStats0.committedInstType::SimdUnitStrideSegmentedStore            0      0.00%    100.00% # Class of committed instruction. (Count)
board.processor.cores1.core.commitStats0.committedInstType::SimdUnitStrideSegmentedFaultOnlyFirstLoad            0      0.00%    100.00% # Class of committed instruction. (Count)
board.processor.cores1.core.commitStats0.committedInstType::SimdStrideSegmentedLoad            0      0.00%    100.00% # Class of committed instruction. (Count)
board.processor.cores1.core.commitStats0.committedInstType::SimdStrideSegmentedStore            0      0.00%    100.00% # Class of committed instruction. (Count)
board.processor.cores1.core.commitStats0.committedInstType::SimdExt            0      0.00%    100.00% # Class of committed instruction. (Count)
board.processor.cores1.core.commitStats0.committedInstType::SimdFloatExt            0      0.00%    100.00% # Class of committed instruction. (Count)
board.processor.cores1.core.commitStats0.committedInstType::SimdConfig            0      0.00%    100.00% # Class of committed instruction. (Count)
board.processor.cores1.core.commitStats0.committedInstType::SimdBf16Add            0      0.00%    100.00% # Class of committed instruction. (Count)
board.processor.cores1.core.commitStats0.committedInstType::SimdBf16Cmp            0      0.00%    100.00% # Class of committed instruction. (Count)
board.processor.cores1.core.commitStats0.committedInstType::SimdBf16Cvt            0      0.00%    100.00% # Class of committed instruction. (Count)
board.processor.cores1.core.commitStats0.committedInstType::SimdBf16DotProd            0      0.00%    100.00% # Class of committed instruction. (Count)
board.processor.cores1.core.commitStats0.committedInstType::SimdBf16MatMultAcc            0      0.00%    100.00% # Class of committed instruction. (Count)
board.processor.cores1.core.commitStats0.committedInstType::SimdBf16Mult            0      0.00%    100.00% # Class of committed instruction. (Count)
board.processor.cores1.core.commitStats0.committedInstType::SimdBf16MultAcc            0      0.00%    100.00% # Class of committed instruction. (Count)
board.processor.cores1.core.commitStats0.committedInstType::Bf16Cvt            0      0.00%    100.00% # Class of committed instruction. (Count)
board.processor.cores1.core.commitStats0.committedInstType::System            0      0.00%    100.00% # Class of committed instruction. (Count)
board.processor.cores1.core.commitStats0.committedInstType::total      2824986                       # Class of committed instruction. (Count)
board.processor.cores1.core.commitStats0.committedControl::IsControl       207428                       # Class of control type instructions committed (Count)
board.processor.cores1.core.commitStats0.committedControl::IsDirectControl       187852                       # Class of control type instructions committed (Count)
board.processor.cores1.core.commitStats0.committedControl::IsIndirectControl        19576                       # Class of control type instructions committed (Count)
board.processor.cores1.core.commitStats0.committedControl::IsCondControl       110367                       # Class of control type instructions committed (Count)
board.processor.cores1.core.commitStats0.committedControl::IsUncondControl        97061                       # Class of control type instructions committed (Count)
board.processor.cores1.core.commitStats0.committedControl::IsCall        19375                       # Class of control type instructions committed (Count)
board.processor.cores1.core.commitStats0.committedControl::IsReturn        19375                       # Class of control type instructions committed (Count)
board.processor.cores1.core.commitStats0.functionCalls        19375                       # Number of function calls committed (Count)
board.processor.cores1.core.commitStats0.numCallsReturns        38750                       # Number of function calls and returns committed (Count)
board.processor.cores1.core.executeStats0.numInsts      2824182                       # Number of executed instructions (Count)
board.processor.cores1.core.executeStats0.numNop            0                       # Number of nop insts executed (Count)
board.processor.cores1.core.executeStats0.numBranches       207428                       # Number of branches executed (Count)
board.processor.cores1.core.executeStats0.numLoadInsts      1334125                       # Number of load instructions executed (Count)
board.processor.cores1.core.executeStats0.numStoreInsts       186442                       # Number of stores executed (Count)
board.processor.cores1.core.executeStats0.instRate     0.619041                       # Inst execution rate ((Count/Cycle))
board.processor.cores1.core.executeStats0.numFpAluAccesses       388068                       # Number of float alu accesses (Count)
board.processor.cores1.core.executeStats0.numFpRegReads       318245                       # Number of times the floating registers were read (Count)
board.processor.cores1.core.executeStats0.numFpRegWrites       318245                       # Number of times the floating registers were written (Count)
board.processor.cores1.core.executeStats0.numIntAluAccesses      2651698                       # Number of integer alu accesses (Count)
board.processor.cores1.core.executeStats0.numIntRegReads      3078712                       # Number of times the integer registers were read (Count)
board.processor.cores1.core.executeStats0.numIntRegWrites      2111345                       # Number of times the integer registers were written (Count)
board.processor.cores1.core.executeStats0.numMemRefs      1520567                       # Number of memory refs (Count)
board.processor.cores1.core.executeStats0.numVecAluAccesses            0                       # Number of vector alu accesses (Count)
board.processor.cores1.core.executeStats0.numDiscardedOps        10910                       # Number of ops (including micro ops) which were discarded before commit (Count)
board.processor.cores1.core.fetch2.totalInstructions      2893214                       # Total number of instructions successfully decoded (Count)
board.processor.cores1.core.fetch2.intInstructions      1138526                       # Number of integer instructions successfully decoded (Count)
board.processor.cores1.core.fetch2.fpInstructions       136653                       # Number of floating point instructions successfully decoded (Count)
board.processor.cores1.core.fetch2.vecInstructions            0                       # Number of SIMD instructions successfully decoded (Count)
board.processor.cores1.core.fetch2.loadInstructions      1368770                       # Number of memory load instructions successfully decoded (Count)
board.processor.cores1.core.fetch2.storeInstructions       189361                       # Number of memory store instructions successfully decoded (Count)
board.processor.cores1.core.fetch2.amoInstructions            0                       # Number of memory atomic instructions successfully decoded (Count)
board.processor.cores1.core.fetchStats0.numInsts      2893214                       # Number of instructions fetched (thread level) (Count)
board.processor.cores1.core.fetchStats0.numOps            0                       # Number of ops (including micro ops) fetched (thread level) (Count)
board.processor.cores1.core.fetchStats0.fetchRate     0.634172                       # Number of inst fetches per cycle ((Count/Cycle))
board.processor.cores1.core.fetchStats0.numBranches       209219                       # Number of branches fetched (Count)
board.processor.cores1.core.fetchStats0.branchRate     0.045859                       # Number of branch fetches per cycle (Ratio)
board.processor.cores1.core.fetchStats0.numFetchSuspends            0                       # Number of times Execute suspended instruction fetching (Count)
board.processor.cores1.core.mmu.dtb.readHits            0                       # read hits (Count)
board.processor.cores1.core.mmu.dtb.readMisses            0                       # read misses (Count)
board.processor.cores1.core.mmu.dtb.readAccesses            0                       # read accesses (Count)
board.processor.cores1.core.mmu.dtb.writeHits            0                       # write hits (Count)
board.processor.cores1.core.mmu.dtb.writeMisses            0                       # write misses (Count)
board.processor.cores1.core.mmu.dtb.writeAccesses            0                       # write accesses (Count)
board.processor.cores1.core.mmu.dtb.hits            0                       # Total TLB (read and write) hits (Count)
board.processor.cores1.core.mmu.dtb.misses            0                       # Total TLB (read and write) misses (Count)
board.processor.cores1.core.mmu.dtb.accesses            0                       # Total TLB (read and write) accesses (Count)
board.processor.cores1.core.mmu.dtb.walker.num_4kb_walks            0                       # Completed page walks with 4KB pages (Count)
board.processor.cores1.core.mmu.dtb.walker.num_64kb_walks            0                       # Completed page walks with 64KB pages (Count)
board.processor.cores1.core.mmu.dtb.walker.num_2mb_walks            0                       # Completed page walks with 2MB pages (Count)
board.processor.cores1.core.mmu.dtb.walker.power_state.pwrStateResidencyTicks::UNDEFINED  11828963862                       # Cumulative time (in ticks) in various power states (Tick)
board.processor.cores1.core.mmu.itb.readHits            0                       # read hits (Count)
board.processor.cores1.core.mmu.itb.readMisses            0                       # read misses (Count)
board.processor.cores1.core.mmu.itb.readAccesses            0                       # read accesses (Count)
board.processor.cores1.core.mmu.itb.writeHits            0                       # write hits (Count)
board.processor.cores1.core.mmu.itb.writeMisses            0                       # write misses (Count)
board.processor.cores1.core.mmu.itb.writeAccesses            0                       # write accesses (Count)
board.processor.cores1.core.mmu.itb.hits            0                       # Total TLB (read and write) hits (Count)
board.processor.cores1.core.mmu.itb.misses            0                       # Total TLB (read and write) misses (Count)
board.processor.cores1.core.mmu.itb.accesses            0                       # Total TLB (read and write) accesses (Count)
board.processor.cores1.core.mmu.itb.walker.num_4kb_walks            0                       # Completed page walks with 4KB pages (Count)
board.processor.cores1.core.mmu.itb.walker.num_64kb_walks            0                       # Completed page walks with 64KB pages (Count)
board.processor.cores1.core.mmu.itb.walker.num_2mb_walks            0                       # Completed page walks with 2MB pages (Count)
board.processor.cores1.core.mmu.itb.walker.power_state.pwrStateResidencyTicks::UNDEFINED  11828963862                       # Cumulative time (in ticks) in various power states (Tick)
board.processor.cores1.core.power_state.pwrStateResidencyTicks::ON  11828963862                       # Cumulative time (in ticks) in various power states (Tick)
board.processor.cores1.core.thread_0.numInsts      2824182                       # Number of Instructions committed (Count)
board.processor.cores1.core.thread_0.numOps      2824986                       # Number of Ops committed (Count)
board.processor.cores1.core.thread_0.numMemRefs      1520567                       # Number of Memory References (Count)
board.workload.inst.arm                             0                       # number of arm instructions executed (Count)
board.workload.inst.quiesce                         0                       # number of quiesce instructions executed (Count)
board.processor.cores0.core.idleCycles         955953                       # Total number of cycles that the object has spent stopped (Unspecified)
board.processor.cores0.core.tickCycles        3606235                       # Number of cycles that the object actually ticked (Unspecified)
board.processor.cores1.core.idleCycles         930937                       # Total number of cycles that the object has spent stopped (Unspecified)
board.processor.cores1.core.tickCycles        3631251                       # Number of cycles that the object actually ticked (Unspecified)

---------- End Simulation Statistics   ----------
